
  EPA STORM WATER MANAGEMENT MODEL - VERSION 5.2 (Build 5.2.4)
  PYSWMM TOOLKIT API - VERSION v1.0 (2023-11-27)
  ------------------------------------------------------------

  INP file created on 2025/3/25 16:00:29 by Kato with inpPINS version 0.0.3.0 
  Title/Notes: 
  WARNING 04: minimum elevation drop used for Conduit 12096595
  WARNING 04: minimum elevation drop used for Conduit 12106946
  WARNING 04: minimum elevation drop used for Conduit 12096536
  WARNING 04: minimum elevation drop used for Conduit 12096540
  WARNING 04: minimum elevation drop used for Conduit 12098155
  
  ****************
  Analysis Options
  ****************
  Flow Units ............... CMS
  Process Models:
    Rainfall/Runoff ........ YES
    RDII ................... NO
    Snowmelt ............... NO
    Groundwater ............ NO
    Flow Routing ........... YES
    Ponding Allowed ........ NO
    Water Quality .......... NO
  Infiltration Method ...... HORTON
  Flow Routing Method ...... DYNWAVE
  Surcharge Method ......... EXTRAN
  Starting Date ............ 03/18/2025 00:00:00
  Ending Date .............. 03/18/2025 02:00:00
  Antecedent Dry Days ...... 0.0
  Report Time Step ......... 00:05:00
  Wet Time Step ............ 00:05:00
  Dry Time Step ............ 01:00:00
  Routing Time Step ........ 10.00 sec
  Variable Time Step ....... YES
  Maximum Trials ........... 8
  Number of Threads ........ 1
  Head Tolerance ........... 0.001500 m
  
  
  *********************
  Rainfall File Summary
  *********************
  Station    First        Last         Recording   Periods    Periods    Periods
  ID         Date         Date         Frequency  w/Precip    Missing    Malfunc.
  -------------------------------------------------------------------------------
  1          03/18/2025   03/18/2025       5 min        25          0          0

  
  
  **************************        Volume         Depth
  Runoff Quantity Continuity     hectare-m            mm
  **************************     ---------       -------
  Total Precipitation ......         0.685        37.216
  Evaporation Loss .........         0.000         0.000
  Infiltration Loss ........         0.183         9.936
  Surface Runoff ...........         0.410        22.259
  Final Storage ............         0.099         5.387
  Continuity Error (%) .....        -0.986
  
  
  **************************        Volume        Volume
  Flow Routing Continuity        hectare-m      10^6 ltr
  **************************     ---------     ---------
  Dry Weather Inflow .......         0.000         0.000
  Wet Weather Inflow .......         0.405         4.049
  Groundwater Inflow .......         0.000         0.000
  RDII Inflow ..............         0.000         0.000
  External Inflow ..........         0.000         0.000
  External Outflow .........         0.321         3.211
  Flooding Loss ............         0.029         0.289
  Evaporation Loss .........         0.000         0.000
  Exfiltration Loss ........         0.000         0.000
  Initial Stored Volume ....         0.000         0.000
  Final Stored Volume ......         0.041         0.409
  Continuity Error (%) .....         3.475
  
  
  *************************
  Highest Continuity Errors
  *************************
  Node PSYS1271812 (8.76%)
  Node PSYS1271809 (8.69%)
  Node PSYS1271450 (7.71%)
  Node PSYS1271435 (7.00%)
  Node PSYS1289524 (5.98%)
  
  
  ***************************
  Time-Step Critical Elements
  ***************************
  Link 12098105 (84.37%)
  Link 12096589 (9.65%)
  Link 12098111 (5.28%)
  
  
  ********************************
  Highest Flow Instability Indexes
  ********************************
  Link 12098149 (60)
  Link 12098155 (20)
  Link 12098153 (15)
  Link 12098116 (7)
  Link 12106962 (6)
  
  
  *********************************
  Most Frequent Nonconverging Nodes
  *********************************
  Node PSYS1271412 (4.63%)
  Node PSYS1289765 (1.87%)
  Node PSYS1289764 (1.83%)
  Node PSYS1289760 (1.81%)
  Node PSYS1289766 (1.74%)
  
  
  *************************
  Routing Time Step Summary
  *************************
  Minimum Time Step           :     0.31 sec
  Average Time Step           :     0.51 sec
  Maximum Time Step           :    10.00 sec
  % of Time in Steady State   :     0.00
  Average Iterations per Step :     2.38
  % of Steps Not Converging   :     4.63
  Time Step Frequencies       :
     10.000 -  5.493 sec      :     0.04 %
      5.493 -  3.017 sec      :     0.01 %
      3.017 -  1.657 sec      :     0.01 %
      1.657 -  0.910 sec      :     0.31 %
      0.910 -  0.500 sec      :    99.63 %
  
  
  ***************************
  Subcatchment Runoff Summary
  ***************************
  
  ------------------------------------------------------------------------------------------------------------------------------
                            Total      Total      Total      Total     Imperv       Perv      Total       Total     Peak  Runoff
                           Precip      Runon       Evap      Infil     Runoff     Runoff     Runoff      Runoff   Runoff   Coeff
  Subcatchment                 mm         mm         mm         mm         mm         mm         mm    10^6 ltr      CMS
  ------------------------------------------------------------------------------------------------------------------------------
  1                         37.22       0.00       0.00       8.21      22.66       2.61      25.27        0.19     0.10   0.679
  2                         37.22       0.00       0.00      21.11       3.56       4.86       8.43        0.06     0.02   0.226
  3                         37.22       0.00       0.00       3.52      30.23       1.62      31.85        0.01     0.01   0.856
  4                         37.22       0.00       0.00      21.11       3.56       4.92       8.48        0.06     0.02   0.228
  5                         37.22       0.00       0.00      21.11       3.56       4.93       8.49        0.01     0.00   0.228
  6                         37.22       0.00       0.00       3.52      30.28       1.68      31.96        0.01     0.00   0.859
  7                         37.22       0.00       0.00       3.52      29.83       1.44      31.27        0.07     0.04   0.840
  8                         37.22       0.00       0.00       3.52      29.98       1.49      31.47        0.04     0.02   0.845
  9                         37.22       0.00       0.00       3.52      30.22       1.62      31.84        0.01     0.01   0.855
  10                        37.22       0.00       0.00       3.52      30.36       1.66      32.02        0.01     0.01   0.860
  11                        37.22       0.00       0.00       3.52      30.26       1.66      31.92        0.01     0.01   0.858
  12                        37.22       0.00       0.00      21.11       3.57       5.48       9.05        0.06     0.02   0.243
  13                        37.22       0.00       0.00      21.11       3.56       4.39       7.95        0.02     0.01   0.214
  14                        37.22       0.00       0.00      21.11       3.55       3.40       6.95        0.03     0.01   0.187
  15                        37.22       0.00       0.00      21.11       3.56       4.66       8.23        0.03     0.01   0.221
  16                        37.22       0.00       0.00      21.11       3.56       3.85       7.40        0.03     0.01   0.199
  17                        37.22       0.00       0.00      21.11       3.57       5.26       8.82        0.03     0.01   0.237
  18                        37.22       0.00       0.00       3.52      30.30       1.70      31.99        0.00     0.00   0.860
  19                        37.22       0.00       0.00       3.52      30.28       1.68      31.96        0.00     0.00   0.859
  20                        37.22       0.00       0.00       3.52      30.27       1.66      31.93        0.02     0.01   0.858
  21                        37.22       0.00       0.00       3.52      30.30       1.69      31.99        0.00     0.00   0.860
  22                        37.22       0.00       0.00       3.52      30.15       1.57      31.72        0.02     0.01   0.852
  23                        37.22       0.00       0.00       8.21      22.92       3.01      25.93        0.08     0.04   0.697
  24                        37.22       0.00       0.00       3.52      30.29       1.68      31.97        0.02     0.01   0.859
  25                        37.22       0.00       0.00       3.52      30.28       1.68      31.96        0.02     0.01   0.859
  26                        37.22       0.00       0.00       3.52      29.13       1.26      30.39        0.15     0.08   0.817
  27                        37.22       0.00       0.00      21.11       3.57       8.85      12.42        0.00     0.00   0.334
  28                        37.22       0.00       0.00       3.52      30.15       1.56      31.71        0.00     0.00   0.852
  29                        37.22       0.00       0.00      21.11       3.57       7.06      10.63        0.00     0.00   0.286
  30                        37.22       0.00       0.00       3.52      30.31       1.71      32.01        0.00     0.00   0.860
  31                        37.22       0.00       0.00       3.52      30.05       1.51      31.56        0.01     0.01   0.848
  32                        37.22       0.00       0.00      21.11       3.57       6.68      10.25        0.01     0.00   0.276
  33                        37.22       0.00       0.00       3.52      30.07       1.52      31.60        0.02     0.01   0.849
  34                        37.22       0.00       0.00       3.52      29.84       1.44      31.28        0.03     0.02   0.840
  35                        37.22       0.00       0.00      21.11       3.57       6.01       9.58        0.02     0.00   0.257
  36                        37.22       0.00       0.00       3.52      30.12       1.55      31.67        0.02     0.01   0.851
  37                        37.22       0.00       0.00       3.52      30.06       1.52      31.58        0.02     0.01   0.849
  38                        37.22       0.00       0.00       8.21      22.74       2.73      25.47        0.06     0.03   0.685
  39                        37.22       0.00       0.00       3.52      29.70       1.40      31.11        0.11     0.06   0.836
  40                        37.22       0.00       0.00       3.52      30.15       1.56      31.71        0.01     0.01   0.852
  41                        37.22       0.00       0.00       3.52      30.16       1.57      31.73        0.02     0.01   0.853
  42                        37.22       0.00       0.00       3.52      30.22       1.61      31.83        0.02     0.01   0.855
  43                        37.22       0.00       0.00       3.52      30.27       1.66      31.93        0.00     0.00   0.858
  44                        37.22       0.00       0.00       3.52      30.30       1.70      31.99        0.00     0.00   0.860
  45                        37.22       0.00       0.00       3.52      30.24       1.64      31.88        0.01     0.01   0.857
  46                        37.22       0.00       0.00       3.52       0.00       0.00       0.00        0.00     0.00   0.000
  47                        37.22       0.00       0.00       3.52      30.17       1.58      31.74        0.02     0.01   0.853
  48                        37.22       0.00       0.00       3.52      30.28       1.67      31.95        0.00     0.00   0.859
  49                        37.22       0.00       0.00       8.21      22.92       3.01      25.92        0.02     0.01   0.697
  50                        37.22       0.00       0.00       3.52      30.10       1.54      31.64        0.03     0.02   0.850
  51                        37.22       0.00       0.00       3.52      30.29       1.69      31.98        0.00     0.00   0.859
  52                        37.22       0.00       0.00       8.21      23.00       3.14      26.14        0.02     0.01   0.702
  53                        37.22       0.00       0.00       8.21      22.96       3.07      26.03        0.04     0.02   0.699
  54                        37.22       0.00       0.00       3.52      30.17       1.58      31.75        0.02     0.01   0.853
  55                        37.22       0.00       0.00       3.52      29.45       1.34      30.79        0.09     0.05   0.827
  56                        37.22       0.00       0.00       3.52      30.18       1.58      31.77        0.02     0.01   0.854
  57                        37.22       0.00       0.00      21.11       3.57       5.73       9.30        0.03     0.01   0.250
  58                        37.22       0.00       0.00       3.52      30.08       1.53      31.61        0.02     0.01   0.849
  59                        37.22       0.00       0.00       3.52      30.21       1.60      31.81        0.01     0.01   0.855
  60                        37.22       0.00       0.00       3.52      30.24       1.63      31.87        0.01     0.01   0.856
  61                        37.22       0.00       0.00       3.52      30.24       1.64      31.88        0.01     0.01   0.857
  62                        37.22       0.00       0.00       3.52      29.64       1.39      31.03        0.10     0.06   0.834
  63                        37.22       0.00       0.00       3.52      29.96       1.48      31.43        0.03     0.02   0.845
  64                        37.22       0.00       0.00       3.52      30.13       1.55      31.68        0.02     0.01   0.851
  65                        37.22       0.00       0.00       3.52      30.23       1.62      31.86        0.02     0.01   0.856
  66                        37.22       0.00       0.00       3.52      29.80       1.43      31.23        0.07     0.04   0.839
  67                        37.22       0.00       0.00       3.52      29.44       1.34      30.78        0.10     0.05   0.827
  68                        37.22       0.00       0.00       3.52       0.00       0.00       0.00        0.00     0.00   0.000
  69                        37.22       0.00       0.00       3.52      30.13       1.55      31.68        0.01     0.01   0.851
  70                        37.22       0.00       0.00       8.21      22.70       2.67      25.37        0.01     0.01   0.682
  71                        37.22       0.00       0.00       3.52      30.22       1.52      31.74        0.02     0.01   0.853
  72                        37.22       0.00       0.00       3.52      29.88       1.45      31.34        0.01     0.01   0.842
  73                        37.22       0.00       0.00       3.52       0.00       0.00       0.00        0.00     0.00   0.000
  74                        37.22       0.00       0.00       8.21      22.55       2.47      25.02        0.53     0.28   0.672
  75                        37.22       0.00       0.00       3.52       0.00       0.00       0.00        0.00     0.00   0.000
  76                        37.22       0.00       0.00       8.21      22.46       2.35      24.82        0.32     0.17   0.667
  77                        37.22       0.00       0.00       3.52       0.00       0.00       0.00        0.00     0.00   0.000
  78                        37.22       0.00       0.00       3.52       0.00       0.00       0.00        0.00     0.00   0.000
  79                        37.22       0.00       0.00       3.52       0.00       0.00       0.00        0.00     0.00   0.000
  80                        37.22       0.00       0.00       3.52       0.00       0.00       0.00        0.00     0.00   0.000
  81                        37.22       0.00       0.00       8.21       0.00       0.00       0.00        0.00     0.00   0.000
  82                        37.22       0.00       0.00       3.52      30.32       1.73      32.04        0.00     0.00   0.861
  83                        37.22       0.00       0.00       3.52      30.11       1.54      31.65        0.03     0.02   0.850
  84                        37.22       0.00       0.00       3.52      30.18       1.58      31.76        0.01     0.01   0.853
  85                        37.22       0.00       0.00      21.11       3.57       7.17      10.74        0.02     0.00   0.289
  86                        37.22       0.00       0.00       3.52      30.30       1.70      32.00        0.02     0.01   0.860
  87                        37.22       0.00       0.00       3.52      30.06       1.52      31.58        0.01     0.01   0.849
  88                        37.22       0.00       0.00       3.52      30.27       1.66      31.93        0.01     0.01   0.858
  89                        37.22       0.00       0.00       3.52      30.27       1.67      31.94        0.02     0.01   0.858
  90                        37.22       0.00       0.00       3.52      30.18       1.59      31.77        0.01     0.01   0.854
  91                        37.22       0.00       0.00       3.52      30.33       1.75      32.08        0.00     0.00   0.862
  92                        37.22       0.00       0.00       3.52      30.32       1.73      32.05        0.00     0.00   0.861
  93                        37.22       0.00       0.00       3.52      29.80       1.43      31.23        0.15     0.09   0.839
  94                        37.22       0.00       0.00       3.52      30.29       1.69      31.99        0.02     0.01   0.860
  95                        37.22       0.00       0.00       3.52      30.35       1.82      32.17        0.00     0.00   0.864
  96                        37.22       0.00       0.00       3.52      30.25       1.64      31.88        0.01     0.01   0.857
  97                        37.22       0.00       0.00       3.52      30.24       1.63      31.87        0.00     0.00   0.856
  98                        37.22       0.00       0.00       3.52      30.31       1.71      32.02        0.01     0.01   0.860
  99                        37.22       0.00       0.00       3.52      30.29       1.69      31.98        0.02     0.01   0.859
  100                       37.22       0.00       0.00      21.11       3.57       5.90       9.46        0.03     0.01   0.254
  101                       37.22       0.00       0.00       3.52      30.19       1.59      31.78        0.01     0.01   0.854
  102                       37.22       0.00       0.00       3.52       0.00       0.00       0.00        0.00     0.00   0.000
  103                       37.22       0.00       0.00       3.52      29.78       1.42      31.20        0.05     0.03   0.838
  104                       37.22       0.00       0.00       3.52      30.05       1.51      31.57        0.03     0.02   0.848
  105                       37.22       0.00       0.00       8.21      22.62       2.56      25.18        0.11     0.06   0.677
  106                       37.22       0.00       0.00       3.52      30.23       1.62      31.85        0.00     0.00   0.856
  107                       37.22       0.00       0.00       3.52       0.00       0.00       0.00        0.00     0.00   0.000
  108                       37.22       0.00       0.00       3.52      30.03       1.50      31.53        0.02     0.01   0.847
  109                       37.22       0.00       0.00       3.52      29.59       1.37      30.96        0.10     0.06   0.832
  110                       37.22       0.00       0.00       3.52      30.32       1.73      32.05        0.01     0.01   0.861
  111                       37.22       0.00       0.00       3.52      30.27       1.66      31.92        0.01     0.01   0.858
  112                       37.22       0.00       0.00       3.52      30.27       1.67      31.94        0.01     0.01   0.858
  113                       37.22       0.00       0.00       3.52      29.50       1.35      30.85        0.25     0.14   0.829
  114                       37.22       0.00       0.00       3.52      30.18       1.58      31.76        0.02     0.01   0.853
  115                       37.22       0.00       0.00       8.21      22.68       2.64      25.32        0.11     0.06   0.680
  116                       37.22       0.00       0.00       3.52       0.00       0.00       0.00        0.00     0.00   0.000
  
  
  ******************
  Node Depth Summary
  ******************
  
  ---------------------------------------------------------------------------------
                                 Average  Maximum  Maximum  Time of Max    Reported
                                   Depth    Depth      HGL   Occurrence   Max Depth
  Node                 Type       Meters   Meters   Meters  days hr:min      Meters
  ---------------------------------------------------------------------------------
  PSYS1289520          JUNCTION     0.01     0.15  1888.15     0  00:53        0.03
  PSYS1271413          JUNCTION     1.21     2.28  1887.21     0  00:55        2.28
  PSYS1272029          JUNCTION     1.44     2.61  1887.24     0  00:55        2.60
  PSYS1289511          JUNCTION     0.01     0.03  1887.91     0  00:52        0.03
  PSYS1271418          JUNCTION     0.02     0.03  1887.95     0  00:55        0.03
  PSYS1271420          JUNCTION     1.96     3.51  1887.78     0  00:52        3.45
  PSYS1271427          JUNCTION     0.02     0.03  1887.87     0  00:55        0.03
  PSYS1271832          JUNCTION     0.93     2.25  1887.65     0  00:53        2.19
  PSYS1271831          JUNCTION     0.03     0.07  1887.98     0  00:55        0.07
  PSYS1271827          JUNCTION     0.02     0.04  1887.95     0  00:55        0.04
  PSYS1271451          JUNCTION     0.78     1.22  1888.07     0  00:53        1.02
  PSYS1271458          JUNCTION     0.04     0.08  1888.45     0  00:55        0.08
  PSYS1271817          JUNCTION     0.87     2.70  1888.24     0  00:53        2.36
  PSYS1271812          JUNCTION     1.27     3.17  1888.30     0  00:53        2.78
  PSYS1271814          JUNCTION     0.05     0.09  1888.38     0  00:55        0.09
  PSYS1289519          JUNCTION     1.07     2.79  1888.42     0  00:52        2.37
  PSYS1272026          JUNCTION     0.02     0.04  1888.07     0  00:55        0.04
  PSYS1272399          JUNCTION     1.01     2.57  1888.15     0  00:52        2.52
  PSYS1272715          JUNCTION     0.02     0.04  1887.90     0  00:55        0.04
  PSYS1271423          JUNCTION     0.03     0.07  1887.91     0  00:55        0.07
  PSYS1272711          JUNCTION     3.95     5.64  1887.58     0  00:54        5.62
  PSYS1271830          JUNCTION     0.01     0.03  1887.93     0  00:55        0.03
  PSYS1271434          JUNCTION     0.03     0.07  1888.21     0  00:55        0.07
  PSYS1271825          JUNCTION     0.01     0.03  1888.07     0  00:53        0.03
  PSYS1271824          JUNCTION     1.28     3.03  1888.11     0  00:53        2.78
  PSYS1271439          JUNCTION     0.01     0.04  1888.29     0  00:53        0.03
  PSYS1271457          JUNCTION     0.02     0.04  1888.34     0  00:55        0.04
  PSYS1271815          JUNCTION     1.48     3.40  1888.24     0  00:53        3.06
  PSYS1272406          JUNCTION     0.42     1.67  1888.64     0  00:52        1.31
  PSYS1289764          JUNCTION     0.98     2.26  1887.93     0  00:53        2.07
  PSYS1289523          JUNCTION     1.06     2.56  1888.20     0  00:52        2.36
  PSYS1271414          JUNCTION     0.03     0.06  1888.12     0  00:55        0.06
  PSYS1289771          JUNCTION     0.90     2.29  1888.02     0  00:50        2.00
  PSYS1271416          JUNCTION     0.03     0.05  1887.98     0  00:55        0.05
  PSYS1272410          JUNCTION     0.45     1.98  1888.56     0  00:52        1.65
  PSYS1271425          JUNCTION     1.74     3.22  1887.80     0  00:53        3.18
  PSYS1271424          JUNCTION     0.02     0.03  1887.78     0  00:55        0.03
  PSYS1271829          JUNCTION     1.59     3.07  1887.78     0  00:53        2.97
  PSYS1271430          JUNCTION     0.02     0.05  1887.95     0  00:53        0.03
  PSYS1271453          JUNCTION     0.02     0.03  1888.42     0  00:55        0.03
  PSYS1289526          JUNCTION     1.23     2.70  1888.15     0  00:52        2.55
  PSYS1289760          JUNCTION     0.90     2.19  1887.94     0  00:53        2.00
  PSYS1289765          JUNCTION     0.66     1.93  1887.93     0  00:53        1.74
  PSYS1289522          JUNCTION     0.01     0.17  1888.12     0  00:53        0.03
  PSYS1289516          JUNCTION     0.02     0.46  1888.39     0  00:53        0.04
  PSYS1272027          JUNCTION     1.57     2.78  1887.35     0  00:55        2.77
  PSYS1272402          JUNCTION     1.44     2.70  1887.58     0  00:52        2.70
  PSYS1271429          JUNCTION     1.29     2.86  1888.00     0  00:53        2.70
  PSYS1271828          JUNCTION     0.03     0.07  1888.00     0  00:55        0.07
  PSYS1271438          JUNCTION     0.03     0.07  1888.37     0  00:55        0.07
  PSYS1289512          JUNCTION     0.76     2.15  1888.07     0  00:52        1.90
  PSYS1289510          JUNCTION     0.78     2.07  1887.98     0  00:52        1.86
  PSYS1272411          JUNCTION     0.00     0.02  1888.29     0  00:52        0.00
  PSYS1271417          JUNCTION     1.36     2.95  1887.85     0  00:53        2.63
  PSYS1272392          JUNCTION     0.80     2.35  1888.25     0  00:52        2.31
  PSYS1272395          JUNCTION     0.38     1.50  1888.24     0  00:52        1.50
  PSYS1272400          JUNCTION     0.94     2.39  1888.01     0  00:52        2.38
  PSYS1271426          JUNCTION     0.03     0.07  1887.94     0  00:55        0.07
  PSYS1271834          JUNCTION     0.03     0.08  1888.00     0  00:54        0.08
  PSYS1271833          JUNCTION     0.01     0.02  1887.94     0  00:55        0.02
  PSYS1271431          JUNCTION     0.03     0.06  1888.10     0  00:55        0.06
  PSYS1271432          JUNCTION     1.75     3.48  1888.13     0  00:53        3.22
  PSYS1271826          JUNCTION     0.92     2.51  1887.96     0  00:53        2.36
  PSYS1271437          JUNCTION     0.03     0.07  1888.22     0  00:55        0.07
  PSYS1271450          JUNCTION     1.48     3.38  1888.36     0  00:53        2.92
  PSYS1271822          JUNCTION     1.39     3.18  1888.13     0  00:53        2.94
  PSYS1271820          JUNCTION     0.83     2.61  1888.18     0  00:53        2.32
  PSYS1271818          JUNCTION     0.01     0.05  1888.22     0  00:53        0.03
  PSYS1271410          JUNCTION     1.56     2.53  1886.98     0  00:55        2.52
  PSYS1272407          JUNCTION     0.02     0.04  1888.64     0  00:52        0.04
  PSYS1289525          JUNCTION     0.01     0.03  1887.99     0  00:55        0.03
  PSYS1271411          JUNCTION     0.01     0.02  1888.19     0  00:54        0.02
  PSYS1289513          JUNCTION     0.01     0.10  1888.00     0  00:53        0.03
  PSYS1272393          JUNCTION     0.00     0.08  1888.22     0  00:53        0.07
  PSYS1272712          JUNCTION     0.99     2.24  1887.54     0  00:54        2.24
  PSYS1271811          JUNCTION     0.08     0.15  1888.50     0  00:55        0.15
  PSYS1271810          JUNCTION     0.02     0.04  1888.43     0  00:52        0.03
  PSYS1289527          JUNCTION     0.02     0.13  1888.02     0  00:53        0.13
  PSYS1289524          JUNCTION     1.16     2.45  1887.97     0  00:52        2.45
  PSYS1289766          JUNCTION     0.67     1.92  1887.91     0  00:53        1.75
  PSYS1289515          JUNCTION     0.78     2.34  1888.26     0  00:52        1.98
  PSYS1271415          JUNCTION     1.92     3.45  1887.69     0  00:53        3.16
  PSYS1272028          JUNCTION     0.02     0.03  1888.08     0  00:55        0.03
  PSYS1272394          JUNCTION     0.42     1.75  1888.21     0  00:52        1.75
  PSYS1272398          JUNCTION     0.89     2.45  1888.22     0  00:52        2.39
  PSYS1272714          JUNCTION     1.15     2.43  1887.51     0  00:54        2.42
  PSYS1272401          JUNCTION     0.88     2.21  1887.83     0  00:54        2.21
  PSYS1271428          JUNCTION     1.91     3.49  1887.90     0  00:53        3.40
  PSYS1271435          JUNCTION     1.08     2.79  1888.20     0  00:51        2.47
  PSYS1271454          JUNCTION     0.04     0.06  1888.57     0  00:55        0.06
  PSYS1271819          JUNCTION     0.01     0.05  1888.16     0  00:53        0.03
  PSYS1271809          JUNCTION     0.65     2.59  1888.40     0  00:53        2.09
  PSYS1272405          JUNCTION     0.29     1.60  1888.82     0  00:52        1.09
  PSYS1272030          JUNCTION     0.00     0.00  1888.18     0  00:00        0.00
  PSYS1272409          JUNCTION     0.00     0.00  1888.55     0  00:52        0.00
  PSYS1272408          JUNCTION     0.24     1.63  1888.57     0  00:52        1.32
  PSYS1289762          JUNCTION     0.60     1.86  1887.94     0  00:53        1.66
  PSYS1289521          JUNCTION     1.16     2.63  1888.15     0  00:52        2.47
  PSYS1289768          JUNCTION     0.68     1.90  1887.88     0  00:53        1.76
  PSYS1289517          JUNCTION     0.97     2.39  1888.12     0  00:52        2.26
  PSYS1289518          JUNCTION     0.02     0.19  1888.19     0  00:53        0.04
  PSYS1289770          JUNCTION     1.09     2.70  1888.21     0  00:50        2.22
  PSYS1272025          JUNCTION     1.14     2.37  1887.44     0  00:55        2.37
  PSYS1271419          JUNCTION     1.78     3.34  1887.76     0  00:53        3.21
  PSYS1271421          JUNCTION     1.37     2.72  1887.71     0  00:50        2.72
  PSYS1271422          JUNCTION     0.01     0.03  1887.81     0  00:55        0.03
  PSYS1272713          JUNCTION     0.02     0.03  1887.98     0  00:55        0.03
  PSYS1271433          JUNCTION     0.01     0.03  1888.11     0  00:55        0.03
  PSYS1271455          JUNCTION     0.08     0.12  1888.63     0  00:55        0.12
  PSYS1271436          JUNCTION     0.02     0.04  1888.14     0  00:53        0.03
  PSYS1271452          JUNCTION     0.92     1.15  1888.06     0  00:53        1.10
  PSYS1271823          JUNCTION     0.02     0.05  1888.04     0  00:55        0.05
  PSYS1271821          JUNCTION     0.01     0.02  1888.16     0  00:55        0.02
  PSYS1271456          JUNCTION     0.94     2.81  1888.39     0  00:53        2.32
  PSYS1271813          JUNCTION     0.01     0.03  1888.30     0  00:52        0.02
  PSYS1271412          OUTFALL      0.21     0.46  1886.36     0  00:55        0.46
  
  
  *******************
  Node Inflow Summary
  *******************
  
  -------------------------------------------------------------------------------------------------
                                  Maximum  Maximum                  Lateral       Total        Flow
                                  Lateral    Total  Time of Max      Inflow      Inflow     Balance
                                   Inflow   Inflow   Occurrence      Volume      Volume       Error
  Node                 Type           CMS      CMS  days hr:min    10^6 ltr    10^6 ltr     Percent
  -------------------------------------------------------------------------------------------------
  PSYS1289520          JUNCTION     0.007    0.012     0  00:53      0.0121      0.0122       0.111
  PSYS1271413          JUNCTION     0.000    0.499     0  00:53           0        1.36       1.291
  PSYS1272029          JUNCTION     0.000    0.574     0  00:54           0        1.43       1.455
  PSYS1289511          JUNCTION     0.007    0.007     0  00:55      0.0113      0.0113       0.114
  PSYS1271418          JUNCTION     0.018    0.018     0  00:55      0.0295      0.0295       0.051
  PSYS1271420          JUNCTION     0.009    0.380     0  00:53      0.0144        1.21       0.936
  PSYS1271427          JUNCTION     0.002    0.015     0  00:55     0.00365      0.0234       0.058
  PSYS1271832          JUNCTION     0.012    0.406     0  00:54        0.02       0.644       1.532
  PSYS1271831          JUNCTION     0.009    0.009     0  00:55      0.0139      0.0139       0.209
  PSYS1271827          JUNCTION     0.002    0.015     0  00:55     0.00307      0.0237       0.062
  PSYS1271451          JUNCTION     0.000    0.060     0  00:53       0.001      0.0821       1.472
  PSYS1271458          JUNCTION     0.015    0.015     0  00:55      0.0244      0.0244       0.130
  PSYS1271817          JUNCTION     0.001    0.112     0  00:54     0.00227        0.17       2.620
  PSYS1271812          JUNCTION     0.018    0.084     0  00:53      0.0291       0.116       9.605
  PSYS1271814          JUNCTION     0.011    0.011     0  00:55      0.0178      0.0178       0.239
  PSYS1289519          JUNCTION     0.051    0.231     0  00:52      0.0906       0.376       2.186
  PSYS1272026          JUNCTION     0.008    0.008     0  00:55      0.0125      0.0125       0.243
  PSYS1272399          JUNCTION     0.027    0.215     0  00:58      0.0467       0.487       0.739
  PSYS1272715          JUNCTION     0.007    0.007     0  00:55      0.0112      0.0112       0.344
  PSYS1271423          JUNCTION     0.013    0.013     0  00:55      0.0207      0.0207       0.130
  PSYS1272711          JUNCTION     0.010    0.629     0  00:52      0.0159        1.45       1.304
  PSYS1271830          JUNCTION     0.002    0.010     0  00:55      0.0025      0.0164       0.062
  PSYS1271434          JUNCTION     0.010    0.010     0  00:55      0.0169      0.0169       0.163
  PSYS1271825          JUNCTION     0.012    0.012     0  00:55      0.0194      0.0194       0.066
  PSYS1271824          JUNCTION     0.001    0.214     0  00:53      0.0022       0.356       3.521
  PSYS1271439          JUNCTION     0.002    0.013     0  00:55     0.00338      0.0204       0.066
  PSYS1271457          JUNCTION     0.002    0.017     0  00:55     0.00328      0.0276       0.056
  PSYS1271815          JUNCTION     0.023    0.100     0  00:54       0.042       0.154       3.214
  PSYS1272406          JUNCTION     0.000    0.068     0  00:55           0       0.118       0.210
  PSYS1289764          JUNCTION     0.008    0.072     0  00:47      0.0123       0.154       5.638
  PSYS1289523          JUNCTION     0.102    0.102     0  00:55        0.19        0.19       0.390
  PSYS1271414          JUNCTION     0.055    0.055     0  00:55      0.0978      0.0978       0.028
  PSYS1289771          JUNCTION     0.009    0.215     0  00:50      0.0317       0.273       3.780
  PSYS1271416          JUNCTION     0.043    0.043     0  00:55      0.0742      0.0742       0.032
  PSYS1272410          JUNCTION     0.000    0.068     0  00:52           0       0.119       0.319
  PSYS1271425          JUNCTION     0.005    0.188     0  00:55      0.0164       0.381       5.543
  PSYS1271424          JUNCTION     0.003    0.016     0  00:55     0.00428      0.0249       0.056
  PSYS1271829          JUNCTION     0.064    0.385     0  00:55        0.11       0.621       1.519
  PSYS1271430          JUNCTION     0.003    0.014     0  00:55     0.00407      0.0231       0.059
  PSYS1271453          JUNCTION     0.005    0.005     0  00:55       0.016       0.016       0.196
  PSYS1289526          JUNCTION     0.025    0.071     0  00:52      0.0413      0.0581       0.000
  PSYS1289760          JUNCTION     0.017    0.017     0  00:55      0.0583      0.0585       0.000
  PSYS1289765          JUNCTION     0.019    0.023     0  00:47      0.0632      0.0676       0.929
  PSYS1289522          JUNCTION     0.007    0.016     0  00:52      0.0114      0.0114       0.100
  PSYS1289516          JUNCTION     0.010    0.060     0  00:52      0.0161      0.0163      -0.004
  PSYS1272027          JUNCTION     0.010    0.601     0  00:54      0.0165        1.46       2.218
  PSYS1272402          JUNCTION     0.139    0.461     0  00:55       0.246       0.933       0.645
  PSYS1271429          JUNCTION     0.009    0.149     0  00:53      0.0283       0.299       5.138
  PSYS1271828          JUNCTION     0.013    0.013     0  00:55      0.0207      0.0207       0.136
  PSYS1271438          JUNCTION     0.010    0.010     0  00:55       0.017       0.017       0.169
  PSYS1289512          JUNCTION     0.017    0.274     0  00:53      0.0289        0.67       0.568
  PSYS1289510          JUNCTION     0.010    0.288     0  00:53      0.0164       0.691       0.259
  PSYS1272411          JUNCTION     0.000    0.007     0  00:52           0    2.92e-05       2.759
  PSYS1271417          JUNCTION     0.005    0.397     0  00:53     0.00864        1.19       1.449
  PSYS1272392          JUNCTION     0.003    0.187     0  00:58     0.00489       0.428       0.242
  PSYS1272395          JUNCTION     0.168    0.168     0  00:55       0.319       0.319       0.086
  PSYS1272400          JUNCTION     0.056    0.263     0  00:55       0.104       0.588       1.072
  PSYS1271426          JUNCTION     0.012    0.012     0  00:55      0.0198      0.0198       0.150
  PSYS1271834          JUNCTION     0.007    0.007     0  00:55      0.0113      0.0113      -0.444
  PSYS1271833          JUNCTION     0.000    0.012     0  00:54    0.000672       0.012       0.742
  PSYS1271431          JUNCTION     0.012    0.012     0  00:55       0.019       0.019       0.123
  PSYS1271432          JUNCTION     0.008    0.131     0  00:51      0.0263       0.248       5.085
  PSYS1271826          JUNCTION     0.086    0.312     0  00:55       0.147       0.513       2.671
  PSYS1271437          JUNCTION     0.012    0.012     0  00:55      0.0189      0.0189       0.160
  PSYS1271450          JUNCTION     0.003    0.116     0  00:51     0.00444       0.155       8.354
  PSYS1271822          JUNCTION     0.030    0.161     0  00:53      0.0558        0.26       2.621
  PSYS1271820          JUNCTION     0.001    0.133     0  00:53     0.00106       0.206       2.740
  PSYS1271818          JUNCTION     0.009    0.009     0  00:55      0.0155      0.0155       0.073
  PSYS1271410          JUNCTION     0.010    1.011     0  00:55      0.0164        2.75       0.670
  PSYS1272407          JUNCTION     0.008    0.008     0  00:55      0.0143      0.0143       0.103
  PSYS1289525          JUNCTION     0.008    0.008     0  00:55      0.0123      0.0123       0.093
  PSYS1271411          JUNCTION     0.008    0.008     0  00:55      0.0148      0.0148       0.071
  PSYS1289513          JUNCTION     0.009    0.015     0  00:52      0.0147      0.0147       0.089
  PSYS1272393          JUNCTION     0.000    0.002     0  00:53           0    0.000132       0.717
  PSYS1272712          JUNCTION     0.006    0.639     0  00:52     0.00989        1.44       0.661
  PSYS1271811          JUNCTION     0.010    0.010     0  00:55      0.0163      0.0163       0.521
  PSYS1271810          JUNCTION     0.020    0.030     0  00:55      0.0337      0.0499       0.033
  PSYS1289527          JUNCTION     0.009    0.018     0  00:52      0.0143      0.0149       0.139
  PSYS1289524          JUNCTION     0.043    0.188     0  00:55      0.0735       0.167       6.357
  PSYS1289766          JUNCTION     0.007    0.061     0  00:47      0.0218        0.17       4.577
  PSYS1289515          JUNCTION     0.056    0.243     0  00:53      0.0974       0.638       1.159
  PSYS1271415          JUNCTION     0.007    0.439     0  00:53      0.0114        1.28       1.453
  PSYS1272028          JUNCTION     0.006    0.006     0  00:55     0.00996     0.00996       0.235
  PSYS1272394          JUNCTION     0.000    0.138     0  00:52           0       0.314       0.029
  PSYS1272398          JUNCTION     0.010    0.194     0  00:58      0.0162       0.442       0.407
  PSYS1272714          JUNCTION     0.000    0.622     0  00:52           0        1.44       0.983
  PSYS1272401          JUNCTION     0.059    0.322     0  00:55        0.11       0.691       0.654
  PSYS1271428          JUNCTION     0.007    0.169     0  00:53      0.0255       0.345       5.672
  PSYS1271435          JUNCTION     0.012    0.117     0  00:51      0.0214       0.201       7.522
  PSYS1271454          JUNCTION     0.002    0.019     0  00:55     0.00591      0.0636       0.127
  PSYS1271819          JUNCTION     0.013    0.013     0  00:55      0.0231      0.0231       0.058
  PSYS1271809          JUNCTION     0.000    0.068     0  00:53           0      0.0531       9.514
  PSYS1272405          JUNCTION     0.059    0.059     0  00:55       0.104       0.104       0.611
  PSYS1272030          JUNCTION     0.000    0.000     0  00:00           0           0       0.000 ltr
  PSYS1272409          JUNCTION     0.000    0.000     0  00:52           0    5.11e-07       0.109 ltr
  PSYS1272408          JUNCTION     0.000    0.068     0  00:55           0       0.118       0.164
  PSYS1289762          JUNCTION     0.004    0.075     0  00:49      0.0134      0.0734       7.809
  PSYS1289521          JUNCTION     0.003    0.181     0  00:52     0.00552       0.307       3.061
  PSYS1289768          JUNCTION     0.009    0.082     0  00:48      0.0284       0.199       4.188
  PSYS1289517          JUNCTION     0.082    0.265     0  00:52       0.151        0.54       2.238
  PSYS1289518          JUNCTION     0.012    0.026     0  00:52      0.0192      0.0193       0.083
  PSYS1289770          JUNCTION     0.010    0.145     0  00:50      0.0297       0.232       4.536
  PSYS1272025          JUNCTION     0.010    0.628     0  00:53      0.0165        1.45       1.618
  PSYS1271419          JUNCTION     0.006    0.378     0  00:53      0.0105        1.15       0.511
  PSYS1271421          JUNCTION     0.017    0.300     0  00:55      0.0288       0.695       4.627
  PSYS1271422          JUNCTION     0.011    0.011     0  00:55       0.018       0.018       0.071
  PSYS1272713          JUNCTION     0.006    0.006     0  00:55     0.00916     0.00916       0.253
  PSYS1271433          JUNCTION     0.002    0.012     0  00:55     0.00348      0.0203       0.065
  PSYS1271455          JUNCTION     0.017    0.017     0  00:55      0.0578      0.0578       0.214
  PSYS1271436          JUNCTION     0.002    0.014     0  00:55     0.00391      0.0227       0.061
  PSYS1271452          JUNCTION     0.001    0.035     0  00:53     0.00283      0.0823       1.801
  PSYS1271823          JUNCTION     0.043    0.043     0  00:55      0.0776      0.0776       0.027
  PSYS1271821          JUNCTION     0.007    0.007     0  00:55      0.0122      0.0122       0.085
  PSYS1271456          JUNCTION     0.008    0.052     0  00:52      0.0134      0.0435       6.306
  PSYS1271813          JUNCTION     0.008    0.018     0  00:55      0.0122        0.03       0.037
  PSYS1271412          OUTFALL      0.278    1.286     0  00:55       0.522        3.21       0.000
  
  
  **********************
  Node Surcharge Summary
  **********************
  
  Surcharging occurs when water rises above the top of the highest conduit.
  ---------------------------------------------------------------------
                                               Max. Height   Min. Depth
                                   Hours       Above Crown    Below Rim
  Node                 Type      Surcharged         Meters       Meters
  ---------------------------------------------------------------------
  PSYS1271413          JUNCTION        0.01          0.004        0.896
  PSYS1271420          JUNCTION        1.39          2.150        0.000
  PSYS1271832          JUNCTION        0.24          0.419        0.301
  PSYS1271817          JUNCTION        0.16          0.750        0.090
  PSYS1271812          JUNCTION        0.09          0.640        0.000
  PSYS1289519          JUNCTION        0.29          0.840        0.000
  PSYS1272399          JUNCTION        0.77          1.635        0.265
  PSYS1272711          JUNCTION        1.30          1.576        0.574
  PSYS1271824          JUNCTION        0.25          0.840        0.000
  PSYS1271815          JUNCTION        1.25          1.900        0.000
  PSYS1272406          JUNCTION        0.16          0.690        0.000
  PSYS1289764          JUNCTION        0.90          1.331        0.139
  PSYS1289523          JUNCTION        1.49          2.013        0.187
  PSYS1289771          JUNCTION        0.71          1.290        0.000
  PSYS1272410          JUNCTION        0.10          0.440        0.000
  PSYS1271425          JUNCTION        1.21          1.360        0.000
  PSYS1271829          JUNCTION        0.26          0.557        0.183
  PSYS1289526          JUNCTION        0.43          0.950        0.000
  PSYS1289760          JUNCTION        1.16          1.433        0.257
  PSYS1289765          JUNCTION        1.18          1.434        0.356
  PSYS1289516          JUNCTION        0.01          0.160        0.000
  PSYS1272402          JUNCTION        1.47          1.970        0.000
  PSYS1271429          JUNCTION        0.66          1.218        0.002
  PSYS1289512          JUNCTION        0.38          0.839        0.001
  PSYS1289510          JUNCTION        0.28          0.492        0.218
  PSYS1271417          JUNCTION        0.35          0.773        0.137
  PSYS1272392          JUNCTION        0.27          0.710        0.000
  PSYS1272395          JUNCTION        0.36          0.970        0.000
  PSYS1272400          JUNCTION        1.21          1.643        0.357
  PSYS1271432          JUNCTION        0.45          1.041        0.049
  PSYS1271826          JUNCTION        0.35          0.936        0.014
  PSYS1271450          JUNCTION        0.23          0.690        0.000
  PSYS1271822          JUNCTION        1.27          1.930        0.000
  PSYS1271820          JUNCTION        0.22          0.810        0.060
  PSYS1272712          JUNCTION        0.20          0.230        0.760
  PSYS1289524          JUNCTION        0.45          0.800        0.000
  PSYS1289766          JUNCTION        0.92          1.318        0.332
  PSYS1289515          JUNCTION        0.28          0.720        0.000
  PSYS1271415          JUNCTION        0.27          0.582        0.308
  PSYS1272394          JUNCTION        0.44          1.150        0.000
  PSYS1272398          JUNCTION        0.62          1.553        0.267
  PSYS1272714          JUNCTION        0.20          0.247        0.823
  PSYS1272401          JUNCTION        1.25          1.533        0.027
  PSYS1271428          JUNCTION        0.79          1.240        0.000
  PSYS1271435          JUNCTION        0.48          1.160        0.000
  PSYS1271809          JUNCTION        0.05          0.631        0.009
  PSYS1272405          JUNCTION        0.22          1.060        0.000
  PSYS1272408          JUNCTION        0.17          0.650        0.000
  PSYS1289762          JUNCTION        0.77          1.261        0.409
  PSYS1289521          JUNCTION        0.46          1.011        0.049
  PSYS1289768          JUNCTION        0.94          1.298        0.302
  PSYS1289517          JUNCTION        0.29          0.550        0.000
  PSYS1289770          JUNCTION        0.79          1.550        0.000
  PSYS1271419          JUNCTION        1.41          2.185        0.245
  PSYS1271421          JUNCTION        0.63          0.910        0.000
  PSYS1271456          JUNCTION        0.36          1.085        0.005
  
  
  *********************
  Node Flooding Summary
  *********************
  
  Flooding refers to all water that overflows a node, whether it ponds or not.
  --------------------------------------------------------------------------
                                                             Total   Maximum
                                 Maximum   Time of Max       Flood    Ponded
                        Hours       Rate    Occurrence      Volume     Depth
  Node                 Flooded       CMS   days hr:min    10^6 ltr    Meters
  --------------------------------------------------------------------------
  PSYS1271420             0.01     0.038      0  00:53       0.000     0.000
  PSYS1271812             0.01     0.006      0  00:53       0.000     0.000
  PSYS1289519             0.01     0.028      0  00:52       0.000     0.000
  PSYS1271824             0.01     0.007      0  00:53       0.000     0.000
  PSYS1271815             0.01     0.008      0  00:53       0.000     0.000
  PSYS1272406             0.01     0.025      0  00:52       0.000     0.000
  PSYS1289771             0.01     0.159      0  00:50       0.000     0.000
  PSYS1272410             0.01     0.042      0  00:52       0.000     0.000
  PSYS1271425             0.01     0.001      0  00:53       0.000     0.000
  PSYS1289526             0.01     0.055      0  00:52       0.000     0.000
  PSYS1289516             0.01     0.021      0  00:53       0.000     0.000
  PSYS1272402             0.18     0.359      0  00:55       0.115     0.000
  PSYS1272392             0.01     0.010      0  00:52       0.000     0.000
  PSYS1272395             0.09     0.031      0  00:55       0.005     0.000
  PSYS1271450             0.01     0.031      0  00:53       0.000     0.000
  PSYS1271822             0.01     0.015      0  00:53       0.000     0.000
  PSYS1289524             0.18     0.188      0  00:55       0.059     0.000
  PSYS1289515             0.01     0.132      0  00:52       0.000     0.000
  PSYS1272394             0.09     0.046      0  00:52       0.008     0.000
  PSYS1271428             0.01     0.001      0  00:53       0.000     0.000
  PSYS1271435             0.01     0.071      0  00:51       0.000     0.000
  PSYS1272405             0.01     0.018      0  00:52       0.000     0.000
  PSYS1272408             0.01     0.026      0  00:52       0.000     0.000
  PSYS1289517             0.01     0.102      0  00:53       0.002     0.000
  PSYS1289770             0.01     0.137      0  00:50       0.000     0.000
  PSYS1271421             0.21     0.290      0  00:55       0.100     0.000
  
  
  ***********************
  Outfall Loading Summary
  ***********************
  
  -----------------------------------------------------------
                         Flow       Avg       Max       Total
                         Freq      Flow      Flow      Volume
  Outfall Node           Pcnt       CMS       CMS    10^6 ltr
  -----------------------------------------------------------
  PSYS1271412           99.99     0.458     1.286       3.211
  -----------------------------------------------------------
  System                99.99     0.458     1.286       3.211
  
  
  ********************
  Link Flow Summary
  ********************
  
  -----------------------------------------------------------------------------
                                 Maximum  Time of Max   Maximum    Max/    Max/
                                  |Flow|   Occurrence   |Veloc|    Full    Full
  Link                 Type          CMS  days hr:min     m/sec    Flow   Depth
  -----------------------------------------------------------------------------
  12106964             CONDUIT     0.050     0  00:52      0.26    0.28    1.00
  12106960             CONDUIT     0.095     0  00:55      0.48    0.79    1.00
  12106962             CONDUIT     0.102     0  00:55      0.52    0.61    1.00
  12099099             CONDUIT     0.007     0  00:52      1.72    0.35    0.62
  12098525             CONDUIT     0.586     0  00:54      1.17    0.80    1.00
  12096546             CONDUIT     0.201     0  00:52      0.71    1.08    1.00
  12099126             CONDUIT     0.611     0  00:53      1.22    3.00    1.00
  12096550             CONDUIT     0.188     0  00:55      0.66    0.46    1.00
  12096555             CONDUIT     0.013     0  00:55      1.67    0.10    0.17
  12096556             CONDUIT     0.169     0  00:53      0.60    0.38    1.00
  12098153             CONDUIT     0.008     0  00:55      3.25    0.01    0.53
  12098143             CONDUIT     0.013     0  00:55      1.49    0.13    0.18
  12096574             CONDUIT     0.109     0  00:53      0.44    0.76    1.00
  12096584             CONDUIT     0.015     0  00:53      2.75    0.03    0.56
  12098126             CONDUIT     0.007     0  00:55      2.42    0.01    0.54
  12106934             CONDUIT     0.008     0  00:55      1.97    0.02    0.55
  12098534             CONDUIT     0.000     0  00:00      0.00    0.00    0.01
  12098529             CONDUIT     0.574     0  00:54      1.14    0.96    1.00
  12096539             CONDUIT     0.018     0  00:55      3.49    0.03    0.56
  12099104             CONDUIT     0.002     0  00:58      0.44    0.16    0.89
  12099127             CONDUIT     0.007     0  00:55      1.11    0.04    0.57
  12096553             CONDUIT     0.016     0  00:55      2.32    0.03    0.56
  12099116             CONDUIT     0.372     0  00:52      1.90    1.06    1.00
  12098149             CONDUIT     0.009     0  00:55      1.10    0.12    0.17
  12098146             CONDUIT     0.386     0  00:54      1.37    0.90    1.00
  12096568             CONDUIT     0.128     0  00:53      0.57    0.32    1.00
  12096573             CONDUIT     0.010     0  00:55      1.39    0.10    0.16
  12096593             CONDUIT     0.019     0  00:55      1.04    0.08    0.51
  12096599             CONDUIT     0.017     0  00:55      3.04    0.03    0.56
  12099095             CONDUIT     0.000     0  00:52      0.08    0.01    0.50
  12107420             CONDUIT     0.018     0  00:55      0.27    0.03    1.00
  12107423             CONDUIT     0.063     0  00:49      0.23    0.17    1.00
  12107426             CONDUIT     0.028     0  00:47      0.51    0.04    1.00
  12107428             CONDUIT     0.049     0  00:55      0.24    0.38    1.00
  12106951             CONDUIT     0.184     0  00:52      0.94    0.73    1.00
  12096528             CONDUIT     0.446     0  00:53      1.58    2.04    1.00
  12098526             CONDUIT     0.008     0  00:55      1.33    0.04    0.39
  12099112             CONDUIT     0.263     0  00:55      1.34    1.72    1.00
  12096559             CONDUIT     0.015     0  00:55      2.42    0.03    0.56
  12096562             CONDUIT     0.149     0  00:53      0.67    0.30    1.00
  12098147             CONDUIT     0.010     0  00:55      2.31    0.02    0.55
  12096595             CONDUIT     0.017     0  00:55      0.97    4.00    0.29
  12098136             CONDUIT     0.043     0  00:55      5.06    0.05    0.58
  12096586             CONDUIT     0.010     0  00:55      1.33    0.12    0.17
  12106931             CONDUIT     0.036     0  00:53      2.02    0.11    0.82
  12107433             CONDUIT     0.077     0  00:48      0.42    0.23    1.00
  12107435             CONDUIT     0.114     0  00:48      0.67    0.47    1.00
  12106946             CONDUIT     0.242     0  00:53      1.23   16.97    1.00
  12106929             CONDUIT     0.025     0  00:53      1.98    0.07    0.66
  12096532             CONDUIT     0.450     0  00:53      1.59    2.95    1.00
  12096536             CONDUIT     0.396     0  00:53      1.40   25.83    1.00
  12099110             CONDUIT     0.215     0  00:58      1.09    0.91    1.00
  12098152             CONDUIT     0.405     0  00:55      0.81    0.39    1.00
  12096571             CONDUIT     0.012     0  00:55      2.80    0.02    0.55
  12096580             CONDUIT     0.086     0  00:53      0.31    0.48    1.00
  12098110             CONDUIT     0.079     0  00:54      0.38    0.44    1.00
  12098107             CONDUIT     0.010     0  00:55      0.56    0.20    0.30
  12106930             CONDUIT     0.052     0  00:52      1.88    0.17    1.00
  12096549             CONDUIT     0.011     0  00:55      2.39    0.02    0.55
  12099122             CONDUIT     0.616     0  00:52      1.23    0.78    1.00
  12099119             CONDUIT     0.629     0  00:52      1.25    0.63    1.00
  12096561             CONDUIT     0.012     0  00:55      1.41    0.14    0.18
  12099114             CONDUIT     0.322     0  00:55      1.64    0.60    1.00
  12096592             CONDUIT     0.005     0  00:55      0.55    0.02    0.54
  12098127             CONDUIT     0.027     0  00:53      3.67    0.03    0.59
  12098120             CONDUIT     0.113     0  00:54      0.41    0.36    1.00
  12098113             CONDUIT     0.011     0  00:55      1.11    0.31    0.20
  12096522             CONDUIT     1.010     0  00:55      3.83    0.93    0.88
  12099087             CONDUIT     0.059     0  00:55      0.91    0.51    1.00
  12099090             CONDUIT     0.068     0  00:55      1.29    0.29    1.00
  12106933             CONDUIT     0.021     0  00:53      1.94    0.05    0.78
  12106957             CONDUIT     0.186     0  00:52      0.95    0.93    1.00
  12106932             CONDUIT     0.024     0  00:53      1.78    0.07    0.76
  12107430             CONDUIT     0.058     0  00:47      0.31    0.48    1.00
  12099094             CONDUIT     0.068     0  00:55      1.02    0.40    1.00
  12099105             CONDUIT     0.138     0  00:52      1.84    0.25    1.00
  12099123             CONDUIT     0.006     0  00:55      1.19    0.03    0.56
  12096567             CONDUIT     0.012     0  00:55      1.72    0.08    0.18
  12098140             CONDUIT     0.312     0  00:54      1.10    2.12    1.00
  12098132             CONDUIT     0.214     0  00:53      0.76    2.46    1.00
  12096589             CONDUIT     0.030     0  00:53      1.71    1.88    1.00
  12098129             CONDUIT     0.161     0  00:53      0.57    0.47    1.00
  12096601             CONDUIT     0.015     0  00:55      1.61    0.14    0.19
  12098116             CONDUIT     0.102     0  00:54      0.58    0.17    1.00
  12098104             CONDUIT     0.042     0  00:53      0.27    0.14    1.00
  12106953             CONDUIT     0.188     0  00:52      0.96    1.31    1.00
  12096527             CONDUIT     0.008     0  00:55      3.63    0.01    0.09
  12096531             CONDUIT     0.055     0  00:55      5.02    0.09    0.60
  12098533             CONDUIT     0.564     0  00:55      1.99    1.82    1.00
  12096535             CONDUIT     0.043     0  00:55      4.46    0.07    0.59
  12106944             CONDUIT     0.274     0  00:53      1.39    0.53    1.00
  12099102             CONDUIT     0.188     0  00:58      0.95    1.06    1.00
  12096542             CONDUIT     0.372     0  00:53      1.89    0.88    1.00
  12096540             CONDUIT     0.377     0  00:53      1.33   22.21    1.00
  12099507             CONDUIT     0.138     0  00:52      2.25    0.38    1.00
  12096565             CONDUIT     0.024     0  00:53      2.65    0.04    0.59
  12096579             CONDUIT     0.011     0  00:55      1.38    0.13    0.18
  12096587             CONDUIT     0.045     0  00:53      1.47    0.30    1.00
  12098124             CONDUIT     0.133     0  00:53      0.48    0.54    1.00
  12098121             CONDUIT     0.021     0  00:53      2.69    0.04    0.58
  12098105             CONDUIT     0.030     0  00:55      5.29    0.01    0.54
  12099091             CONDUIT     0.008     0  00:55      3.00    0.29    0.69
  12106935             CONDUIT     0.030     0  00:52      2.02    0.08    0.72
  12106928             CONDUIT     0.007     0  00:52      1.66    0.02    0.55
  12098530             CONDUIT     0.006     0  00:55      1.28    0.03    0.30
  12099098             CONDUIT     0.068     0  00:55      1.13    0.31    1.00
  12099108             CONDUIT     0.194     0  00:58      1.12    0.65    1.00
  12098155             CONDUIT     0.011     0  00:54      1.46    0.88    0.17
  12098141             CONDUIT     0.015     0  00:55      2.53    0.03    0.56
  12096577             CONDUIT     0.016     0  00:53      2.91    0.03    0.56
  12098135             CONDUIT     0.012     0  00:53      2.75    0.02    0.55
  12096596             CONDUIT     0.039     0  00:52      0.40    0.07    1.00
  12098111             CONDUIT     0.018     0  00:55      4.59    0.01    0.53
  12000001             CONDUIT     0.150     0  00:49      0.60    0.25    1.00
  12000002             CONDUIT     0.290     0  00:53      1.08    0.19    1.00
  
  
  ***************************
  Flow Classification Summary
  ***************************
  
  -------------------------------------------------------------------------------------
                      Adjusted    ---------- Fraction of Time in Flow Class ---------- 
                       /Actual         Up    Down  Sub   Sup   Up    Down  Norm  Inlet 
  Conduit               Length    Dry  Dry   Dry   Crit  Crit  Crit  Crit  Ltd   Ctrl  
  -------------------------------------------------------------------------------------
  12106964                1.00   0.00  0.00  0.00  1.00  0.00  0.00  0.00  0.07  0.00
  12106960                1.00   0.00  0.04  0.00  0.96  0.00  0.00  0.00  0.01  0.00
  12106962                1.00   0.03  0.00  0.00  0.83  0.00  0.13  0.00  0.00  0.00
  12099099                1.00   0.44  0.00  0.00  0.06  0.00  0.00  0.50  0.56  0.00
  12098525                1.00   0.00  0.00  0.00  0.89  0.00  0.00  0.11  0.10  0.00
  12096546                1.00   0.00  0.21  0.00  0.76  0.00  0.03  0.00  0.00  0.00
  12099126                1.00   0.00  0.01  0.00  0.99  0.00  0.00  0.00  0.03  0.00
  12096550                1.00   0.00  0.00  0.00  0.85  0.00  0.00  0.15  0.06  0.00
  12096555                1.00   0.00  0.00  0.00  0.01  0.99  0.00  0.00  0.00  0.00
  12096556                1.00   0.05  0.09  0.00  0.86  0.00  0.00  0.00  0.05  0.00
  12098153                1.00   0.01  0.00  0.00  0.17  0.01  0.00  0.81  0.18  0.00
  12098143                1.00   0.00  0.00  0.00  0.01  0.99  0.00  0.00  0.85  0.00
  12096574                1.00   0.00  0.00  0.00  0.84  0.00  0.00  0.16  0.00  0.00
  12096584                1.00   0.00  0.00  0.00  0.25  0.01  0.00  0.73  0.27  0.00
  12098126                1.00   0.00  0.00  0.00  0.17  0.01  0.00  0.81  0.18  0.00
  12106934                1.00   0.00  0.00  0.00  0.29  0.01  0.00  0.69  0.31  0.00
  12098534                1.00   1.00  0.00  0.00  0.00  0.00  0.00  0.00  0.00  0.00
  12098529                1.00   0.11  0.07  0.00  0.79  0.00  0.02  0.00  0.00  0.00
  12096539                1.00   0.00  0.00  0.00  0.24  0.02  0.00  0.74  0.26  0.00
  12099104                1.00   0.42  0.02  0.00  0.14  0.00  0.00  0.42  0.51  0.00
  12099127                1.00   0.00  0.00  0.00  0.16  0.01  0.00  0.83  0.17  0.00
  12096553                1.00   0.00  0.00  0.00  0.64  0.01  0.00  0.35  0.64  0.00
  12099116                1.00   0.04  0.08  0.00  0.83  0.00  0.04  0.00  0.00  0.00
  12098149                1.00   0.00  0.00  0.00  0.02  0.98  0.00  0.00  0.56  0.00
  12098146                1.00   0.00  0.00  0.00  0.91  0.00  0.00  0.09  0.01  0.00
  12096568                1.00   0.05  0.11  0.00  0.84  0.00  0.00  0.00  0.13  0.00
  12096573                1.00   0.00  0.00  0.00  0.01  0.98  0.00  0.00  0.02  0.00
  12096593                1.00   0.00  0.00  0.00  0.81  0.00  0.00  0.19  0.81  0.00
  12096599                1.00   0.00  0.00  0.00  0.23  0.02  0.00  0.75  0.25  0.00
  12099095                1.00   0.44  0.00  0.00  0.10  0.00  0.00  0.46  0.56  0.00
  12107420                1.00   0.00  0.00  0.00  0.91  0.00  0.00  0.09  0.08  0.00
  12107423                1.00   0.00  0.00  0.00  0.89  0.00  0.00  0.11  0.12  0.00
  12107426                1.00   0.00  0.00  0.00  0.92  0.00  0.00  0.07  0.06  0.00
  12107428                1.00   0.00  0.06  0.00  0.87  0.00  0.07  0.00  0.00  0.00
  12106951                1.00   0.00  0.00  0.00  1.00  0.00  0.00  0.00  0.21  0.00
  12096528                1.00   0.01  0.15  0.00  0.82  0.00  0.02  0.00  0.00  0.00
  12098526                1.00   0.00  0.00  0.00  0.07  0.02  0.00  0.91  0.09  0.00
  12099112                1.00   0.07  0.02  0.00  0.71  0.00  0.00  0.20  0.04  0.00
  12096559                1.00   0.00  0.00  0.00  0.61  0.01  0.00  0.38  0.61  0.00
  12096562                1.00   0.07  0.00  0.00  0.80  0.00  0.00  0.13  0.07  0.00
  12098147                1.00   0.00  0.00  0.00  0.18  0.01  0.00  0.81  0.19  0.00
  12096595                1.00   0.00  0.00  0.00  0.35  0.65  0.00  0.00  0.00  0.00
  12098136                1.00   0.00  0.00  0.00  0.15  0.03  0.00  0.81  0.18  0.00
  12096586                1.00   0.00  0.00  0.00  0.01  0.98  0.00  0.00  0.09  0.00
  12106931                1.00   0.00  0.00  0.00  0.19  0.01  0.00  0.80  0.19  0.00
  12107433                1.00   0.00  0.19  0.00  0.79  0.00  0.02  0.00  0.00  0.00
  12107435                1.00   0.19  0.00  0.00  0.75  0.00  0.05  0.01  0.07  0.00
  12106946                1.00   0.00  0.00  0.00  1.00  0.00  0.00  0.00  0.00  0.00
  12106929                1.00   0.00  0.00  0.00  0.25  0.01  0.00  0.73  0.26  0.00
  12096532                1.00   0.03  0.00  0.00  0.87  0.00  0.00  0.10  0.01  0.00
  12096536                1.00   0.00  0.00  0.00  0.88  0.00  0.00  0.12  0.00  0.00
  12099110                1.00   0.10  0.03  0.00  0.86  0.00  0.00  0.01  0.19  0.00
  12098152                1.00   0.04  0.00  0.00  0.84  0.00  0.00  0.13  0.04  0.00
  12096571                1.00   0.00  0.00  0.00  0.30  0.02  0.00  0.67  0.32  0.00
  12096580                1.00   0.00  0.13  0.00  0.87  0.00  0.00  0.00  0.12  0.00
  12098110                1.00   0.13  0.01  0.00  0.67  0.00  0.20  0.00  0.00  0.00
  12098107                1.00   0.00  0.00  0.00  1.00  0.00  0.00  0.00  0.06  0.00
  12106930                1.00   0.00  0.00  0.00  0.18  0.01  0.00  0.81  0.19  0.00
  12096549                1.00   0.00  0.00  0.00  0.51  0.06  0.00  0.43  0.56  0.00
  12099122                1.00   0.00  0.00  0.00  0.73  0.00  0.00  0.26  0.00  0.00
  12099119                1.00   0.15  0.00  0.00  0.77  0.00  0.07  0.01  0.00  0.00
  12096561                1.00   0.00  0.00  0.00  0.01  0.99  0.00  0.00  0.38  0.00
  12099114                1.00   0.08  0.00  0.00  0.91  0.01  0.00  0.01  0.26  0.00
  12096592                1.00   0.00  0.00  0.00  0.81  0.00  0.00  0.18  0.81  0.00
  12098127                1.00   0.00  0.00  0.00  0.15  0.02  0.00  0.83  0.16  0.00
  12098120                1.00   0.01  0.11  0.00  0.88  0.00  0.00  0.00  0.21  0.00
  12098113                1.00   0.00  0.00  0.00  0.14  0.86  0.00  0.00  0.00  0.00
  12096522                1.00   0.21  0.12  0.00  0.24  0.42  0.00  0.00  0.00  0.00
  12099087                1.00   0.07  0.00  0.00  0.17  0.00  0.00  0.76  0.01  0.00
  12099090                1.00   0.12  0.00  0.00  0.21  0.30  0.00  0.37  0.25  0.00
  12106933                1.00   0.00  0.00  0.00  0.30  0.01  0.00  0.68  0.29  0.00
  12106957                1.00   0.06  0.00  0.00  0.84  0.00  0.00  0.10  0.02  0.00
  12106932                1.00   0.00  0.00  0.00  0.19  0.01  0.00  0.80  0.19  0.00
  12107430                1.00   0.00  0.00  0.00  1.00  0.00  0.00  0.00  0.06  0.00
  12099094                1.00   0.13  0.00  0.00  0.29  0.51  0.00  0.08  0.50  0.00
  12099105                1.00   0.06  0.00  0.00  0.36  0.06  0.00  0.52  0.07  0.00
  12099123                1.00   0.00  0.00  0.00  0.16  0.01  0.00  0.84  0.16  0.00
  12096567                1.00   0.00  0.00  0.00  0.01  0.99  0.00  0.00  0.00  0.00
  12098140                1.00   0.00  0.00  0.00  0.88  0.00  0.00  0.12  0.00  0.00
  12098132                1.00   0.02  0.00  0.00  0.91  0.00  0.00  0.07  0.00  0.00
  12096589                1.00   0.19  0.00  0.00  0.00  0.00  0.80  0.00  0.00  0.00
  12098129                1.00   0.09  0.06  0.00  0.85  0.00  0.00  0.00  0.13  0.00
  12096601                1.00   0.00  0.00  0.00  0.01  0.99  0.00  0.00  0.02  0.00
  12098116                1.00   0.10  0.05  0.00  0.83  0.00  0.02  0.00  0.04  0.00
  12098104                1.00   0.03  0.00  0.00  0.87  0.00  0.00  0.09  0.21  0.00
  12106953                1.00   0.00  0.07  0.00  0.81  0.00  0.12  0.00  0.00  0.00
  12096527                1.00   0.00  0.00  0.00  0.00  0.02  0.00  0.98  0.00  0.00
  12096531                1.00   0.00  0.00  0.00  0.00  0.14  0.00  0.86  0.13  0.00
  12098533                1.00   0.20  0.00  0.00  0.77  0.00  0.03  0.00  0.00  0.00
  12096535                1.00   0.00  0.00  0.00  0.18  0.03  0.00  0.79  0.21  0.00
  12106944                1.00   0.00  0.12  0.00  0.88  0.00  0.00  0.00  0.12  0.00
  12099102                1.00   0.08  0.01  0.00  0.88  0.00  0.03  0.00  0.00  0.00
  12096542                1.00   0.00  0.07  0.00  0.93  0.00  0.00  0.00  0.09  0.00
  12096540                1.00   0.15  0.00  0.00  0.76  0.00  0.09  0.00  0.00  0.00
  12099507                1.00   0.05  0.00  0.00  0.25  0.03  0.00  0.67  0.04  0.00
  12096565                1.00   0.00  0.00  0.00  0.54  0.06  0.00  0.40  0.60  0.00
  12096579                1.00   0.00  0.00  0.00  0.01  0.98  0.00  0.00  0.10  0.00
  12096587                1.00   0.25  0.00  0.00  0.14  0.01  0.00  0.59  0.14  0.00
  12098124                1.00   0.03  0.03  0.00  0.84  0.00  0.10  0.00  0.00  0.00
  12098121                1.00   0.00  0.00  0.00  0.13  0.01  0.00  0.86  0.14  0.00
  12098105                1.00   0.00  0.00  0.00  0.07  0.03  0.00  0.89  0.10  0.00
  12099091                1.00   0.00  0.00  0.00  0.00  0.09  0.00  0.90  0.09  0.00
  12106935                1.00   0.00  0.00  0.00  0.28  0.01  0.00  0.70  0.20  0.00
  12106928                1.00   0.00  0.00  0.00  0.19  0.01  0.00  0.80  0.19  0.00
  12098530                1.00   0.00  0.00  0.00  0.05  0.02  0.00  0.93  0.06  0.00
  12099098                1.00   0.15  0.00  0.00  0.30  0.01  0.00  0.53  0.06  0.00
  12099108                1.00   0.12  0.00  0.00  0.64  0.20  0.00  0.04  0.01  0.00
  12098155                1.00   0.00  0.00  0.00  0.15  0.85  0.00  0.00  0.03  0.00
  12098141                1.00   0.00  0.00  0.00  0.23  0.02  0.00  0.75  0.25  0.00
  12096577                1.00   0.00  0.00  0.00  0.32  0.02  0.00  0.65  0.34  0.00
  12098135                1.00   0.00  0.00  0.00  0.18  0.01  0.00  0.81  0.19  0.00
  12096596                1.00   0.00  0.00  0.00  0.87  0.00  0.00  0.12  0.18  0.00
  12098111                1.00   0.00  0.00  0.00  0.11  0.02  0.00  0.87  0.12  0.00
  12000001                1.00   0.19  0.00  0.00  0.72  0.00  0.00  0.09  0.08  0.00
  12000002                1.00   0.21  0.06  0.00  0.73  0.00  0.00  0.00  0.13  0.00
  
  
  *************************
  Conduit Surcharge Summary
  *************************
  
  ----------------------------------------------------------------------------
                                                           Hours        Hours 
                         --------- Hours Full --------   Above Full   Capacity
  Conduit                Both Ends  Upstream  Dnstream   Normal Flow   Limited
  ----------------------------------------------------------------------------
  12106964                    1.55      1.55      1.58      0.01         0.01
  12106960                    1.54      1.54      1.55      0.01         0.02
  12106962                    1.48      1.48      1.49      0.01         0.01
  12099099                    0.01      0.01      0.10      0.01         0.01
  12098525                    1.33      1.33      1.37      0.01         0.01
  12096546                    1.39      1.39      1.40      0.01         0.01
  12099126                    1.33      1.33      1.33      0.74         0.75
  12096550                    1.40      1.40      1.44      0.01         0.01
  12096556                    1.42      1.42      1.47      0.01         0.01
  12098153                    0.01      0.01      0.24      0.01         0.01
  12096574                    1.31      1.31      1.31      0.01         0.03
  12096584                    0.01      0.01      0.39      0.01         0.01
  12098126                    0.01      0.01      0.24      0.01         0.01
  12106934                    0.01      0.01      0.45      0.01         0.01
  12098529                    1.34      1.34      1.37      0.01         0.01
  12096539                    0.01      0.01      0.35      0.01         0.01
  12099104                    0.01      0.01      0.25      0.01         0.01
  12099127                    0.01      0.01      0.20      0.01         0.01
  12096553                    0.01      0.01      1.21      0.01         0.01
  12099116                    1.36      1.36      1.61      0.01         0.01
  12098146                    1.30      1.30      1.33      0.01         0.01
  12096568                    1.31      1.31      1.34      0.01         0.01
  12096599                    0.01      0.01      0.36      0.01         0.01
  12099095                    0.01      0.01      0.17      0.01         0.01
  12107420                    0.77      0.77      1.16      0.01         0.01
  12107423                    0.77      0.77      0.95      0.01         0.01
  12107426                    1.18      1.18      1.21      0.01         0.01
  12107428                    0.90      0.90      0.92      0.01         0.02
  12106951                    1.42      1.42      1.47      0.01         0.01
  12096528                    1.40      1.40      1.41      0.87         0.01
  12099112                    1.25      1.25      1.25      0.32         0.32
  12096559                    0.01      0.01      0.79      0.01         0.01
  12096562                    1.34      1.34      1.41      0.01         0.01
  12098147                    0.01      0.01      0.26      0.01         0.01
  12096595                    0.01      0.01      0.01      1.29         0.01
  12098136                    0.01      0.01      0.25      0.01         0.01
  12106931                    0.01      0.01      0.29      0.01         0.01
  12107433                    0.79      0.79      0.94      0.01         0.01
  12107435                    0.71      0.71      0.79      0.01         0.01
  12106946                    1.40      1.40      1.42      1.45         0.01
  12106929                    0.01      0.01      0.38      0.01         0.01
  12096532                    1.41      1.41      1.41      1.17         0.01
  12096536                    1.42      1.42      1.42      1.46         1.37
  12099110                    0.79      0.79      1.21      0.01         0.01
  12098152                    1.26      1.26      1.30      0.01         0.01
  12096571                    0.01      0.01      0.45      0.01         0.01
  12096580                    1.30      1.30      1.31      0.01         0.01
  12098110                    1.25      1.25      1.26      0.01         0.01
  12106930                    0.01      0.01      0.28      0.01         0.01
  12096549                    0.01      0.01      0.63      0.01         0.01
  12099122                    1.28      1.28      1.30      0.01         0.01
  12099119                    1.28      1.28      1.30      0.01         0.01
  12099114                    1.25      1.25      1.47      0.01         0.01
  12098127                    0.01      0.01      0.22      0.01         0.01
  12098120                    1.26      1.26      1.27      0.01         0.01
  12096522                    0.01      0.01      1.33      0.01         0.01
  12099087                    0.22      0.22      0.24      0.01         0.01
  12099090                    0.24      0.24      0.33      0.01         0.01
  12106933                    0.01      0.01      0.46      0.01         0.01
  12106957                    1.47      1.47      1.49      0.01         0.01
  12106932                    0.01      0.01      0.29      0.01         0.01
  12107430                    0.92      0.92      0.94      0.01         0.02
  12099094                    0.33      0.33      0.38      0.01         0.01
  12099105                    0.44      0.44      0.51      0.01         0.01
  12099123                    0.01      0.01      0.20      0.01         0.01
  12098140                    1.29      1.29      1.30      0.22         0.21
  12098132                    1.29      1.29      1.29      0.32         0.02
  12096589                    0.01      0.01      0.57      0.81         0.01
  12098129                    1.27      1.27      1.29      0.01         0.01
  12098116                    1.26      1.26      1.26      0.01         0.01
  12098104                    0.84      0.84      1.26      0.01         0.01
  12106953                    1.46      1.46      1.47      0.01         0.01
  12096531                    0.01      0.01      0.01      0.01         0.01
  12098533                    1.39      1.39      1.40      0.52         0.01
  12096535                    0.01      0.01      0.27      0.01         0.01
  12106944                    0.82      0.82      1.40      0.01         0.01
  12099102                    0.64      0.64      0.68      0.06         0.01
  12096542                    1.53      1.53      1.55      0.01         0.01
  12096540                    1.40      1.41      1.40      1.45         1.37
  12099507                    0.36      0.36      0.44      0.01         0.01
  12096565                    0.01      0.01      0.66      0.01         0.01
  12096587                    0.01      0.01      0.23      0.01         0.01
  12098124                    1.27      1.27      1.27      0.01         0.01
  12098121                    0.01      0.01      0.16      0.01         0.01
  12098105                    0.01      0.01      0.05      0.01         0.01
  12099091                    0.01      0.01      0.16      0.01         0.01
  12106935                    0.01      0.01      0.43      0.01         0.01
  12106928                    0.01      0.01      0.28      0.01         0.01
  12099098                    0.37      0.37      0.46      0.01         0.01
  12099108                    0.62      0.62      0.77      0.01         0.01
  12098141                    0.01      0.01      0.35      0.01         0.01
  12096577                    0.01      0.01      0.48      0.01         0.01
  12098135                    0.01      0.01      0.26      0.01         0.01
  12096596                    1.28      1.28      1.31      0.01         0.01
  12098111                    0.01      0.01      0.09      0.01         0.01
  12000001                    0.71      0.71      1.31      0.01         0.01
  12000002                    0.55      0.55      1.46      0.01         0.01
  

  Analysis begun on:  Wed Apr  2 16:31:13 2025
  Analysis ended on:  Wed Apr  2 16:31:14 2025
  Total elapsed time: 00:00:01