
  EPA STORM WATER MANAGEMENT MODEL - VERSION 5.2 (Build 5.2.4)
  PYSWMM TOOLKIT API - VERSION v1.0 (2023-11-27)
  ------------------------------------------------------------

  INP file created on 2025/3/25 16:00:29 by Kato with inpPINS version 0.0.3.0 
  Title/Notes: 
  WARNING 04: minimum elevation drop used for Conduit 12096595
  WARNING 04: minimum elevation drop used for Conduit 12106946
  WARNING 04: minimum elevation drop used for Conduit 12096536
  WARNING 04: minimum elevation drop used for Conduit 12096540
  WARNING 04: minimum elevation drop used for Conduit 12098155
  
  ****************
  Analysis Options
  ****************
  Flow Units ............... CMS
  Process Models:
    Rainfall/Runoff ........ YES
    RDII ................... NO
    Snowmelt ............... NO
    Groundwater ............ NO
    Flow Routing ........... YES
    Ponding Allowed ........ NO
    Water Quality .......... NO
  Infiltration Method ...... HORTON
  Flow Routing Method ...... DYNWAVE
  Surcharge Method ......... EXTRAN
  Starting Date ............ 03/18/2025 00:00:00
  Ending Date .............. 03/18/2025 02:00:00
  Antecedent Dry Days ...... 0.0
  Report Time Step ......... 00:05:00
  Wet Time Step ............ 00:05:00
  Dry Time Step ............ 01:00:00
  Routing Time Step ........ 10.00 sec
  Variable Time Step ....... YES
  Maximum Trials ........... 8
  Number of Threads ........ 1
  Head Tolerance ........... 0.001500 m
  
  
  *********************
  Rainfall File Summary
  *********************
  Station    First        Last         Recording   Periods    Periods    Periods
  ID         Date         Date         Frequency  w/Precip    Missing    Malfunc.
  -------------------------------------------------------------------------------
  1          03/18/2025   03/18/2025       5 min        25          0          0

  
  
  **************************        Volume         Depth
  Runoff Quantity Continuity     hectare-m            mm
  **************************     ---------       -------
  Total Precipitation ......         1.144        62.136
  Evaporation Loss .........         0.000         0.000
  Infiltration Loss ........         0.188        10.215
  Surface Runoff ...........         0.830        45.077
  Final Storage ............         0.139         7.566
  Continuity Error (%) .....        -1.161
  
  
  **************************        Volume        Volume
  Flow Routing Continuity        hectare-m      10^6 ltr
  **************************     ---------     ---------
  Dry Weather Inflow .......         0.000         0.000
  Wet Weather Inflow .......         0.820         8.204
  Groundwater Inflow .......         0.000         0.000
  RDII Inflow ..............         0.000         0.000
  External Inflow ..........         0.000         0.000
  External Outflow .........         0.520         5.199
  Flooding Loss ............         0.233         2.329
  Evaporation Loss .........         0.000         0.000
  Exfiltration Loss ........         0.000         0.000
  Initial Stored Volume ....         0.000         0.000
  Final Stored Volume ......         0.043         0.431
  Continuity Error (%) .....         2.989
  
  
  *************************
  Highest Continuity Errors
  *************************
  Node PSYS1271809 (6.32%)
  Node PSYS1271812 (6.10%)
  Node PSYS1271456 (5.48%)
  Node PSYS1271450 (4.48%)
  Node PSYS1271435 (4.07%)
  
  
  ***************************
  Time-Step Critical Elements
  ***************************
  Link 12098105 (70.66%)
  Link 12096527 (15.90%)
  Link 12098136 (6.55%)
  Link 12098111 (3.22%)
  Link 12098155 (1.78%)
  
  
  ********************************
  Highest Flow Instability Indexes
  ********************************
  Link 12098155 (45)
  Link 12098153 (36)
  Link 12098149 (20)
  Link 12106962 (13)
  Link 12098116 (10)
  
  
  *********************************
  Most Frequent Nonconverging Nodes
  *********************************
  Node PSYS1271412 (5.78%)
  Node PSYS1289765 (1.74%)
  Node PSYS1289764 (1.72%)
  Node PSYS1289760 (1.64%)
  Node PSYS1289766 (1.54%)
  
  
  *************************
  Routing Time Step Summary
  *************************
  Minimum Time Step           :     0.03 sec
  Average Time Step           :     0.51 sec
  Maximum Time Step           :    10.00 sec
  % of Time in Steady State   :     0.00
  Average Iterations per Step :     2.62
  % of Steps Not Converging   :     5.78
  Time Step Frequencies       :
     10.000 -  5.493 sec      :     0.04 %
      5.493 -  3.017 sec      :     0.01 %
      3.017 -  1.657 sec      :     0.01 %
      1.657 -  0.910 sec      :     0.15 %
      0.910 -  0.500 sec      :    99.80 %
  
  
  ***************************
  Subcatchment Runoff Summary
  ***************************
  
  ------------------------------------------------------------------------------------------------------------------------------
                            Total      Total      Total      Total     Imperv       Perv      Total       Total     Peak  Runoff
                           Precip      Runon       Evap      Infil     Runoff     Runoff     Runoff      Runoff   Runoff   Coeff
  Subcatchment                 mm         mm         mm         mm         mm         mm         mm    10^6 ltr      CMS
  ------------------------------------------------------------------------------------------------------------------------------
  1                         62.14       0.00       0.00       8.44      38.73      10.57      49.30        0.37     0.20   0.793
  2                         62.14       0.00       0.00      21.70       6.07      23.23      29.30        0.23     0.07   0.472
  3                         62.14       0.00       0.00       3.62      51.40       5.31      56.71        0.03     0.02   0.913
  4                         62.14       0.00       0.00      21.70       6.06      23.37      29.43        0.21     0.06   0.474
  5                         62.14       0.00       0.00      21.70       6.06      23.40      29.45        0.05     0.01   0.474
  6                         62.14       0.00       0.00       3.62      51.47       5.36      56.83        0.01     0.01   0.915
  7                         62.14       0.00       0.00       3.62      50.91       5.07      55.98        0.13     0.08   0.901
  8                         62.14       0.00       0.00       3.62      51.09       5.14      56.23        0.07     0.05   0.905
  9                         62.14       0.00       0.00       3.62      51.39       5.30      56.69        0.02     0.01   0.912
  10                        62.14       0.00       0.00       3.62      51.45       5.35      56.79        0.02     0.01   0.914
  11                        62.14       0.00       0.00       3.62      51.44       5.34      56.79        0.02     0.01   0.914
  12                        62.14       0.00       0.00      21.70       6.06      24.71      30.77        0.20     0.07   0.495
  13                        62.14       0.00       0.00      21.70       6.05      21.98      28.03        0.08     0.02   0.451
  14                        62.14       0.00       0.00      21.70       6.04      18.89      24.93        0.11     0.03   0.401
  15                        62.14       0.00       0.00      21.70       6.05      22.72      28.78        0.10     0.03   0.463
  16                        62.14       0.00       0.00      21.70       6.05      20.38      26.43        0.10     0.03   0.425
  17                        62.14       0.00       0.00      21.70       6.06      24.19      30.25        0.09     0.03   0.487
  18                        62.14       0.00       0.00       3.62      51.49       5.38      56.87        0.01     0.00   0.915
  19                        62.14       0.00       0.00       3.62      51.57       5.37      56.93        0.01     0.00   0.916
  20                        62.14       0.00       0.00       3.62      51.45       5.35      56.80        0.03     0.02   0.914
  21                        62.14       0.00       0.00       3.62      51.49       5.38      56.86        0.01     0.00   0.915
  22                        62.14       0.00       0.00       3.62      51.30       5.25      56.55        0.03     0.02   0.910
  23                        62.14       0.00       0.00       8.44      39.06      11.26      50.32        0.15     0.09   0.810
  24                        62.14       0.00       0.00       3.62      51.47       5.37      56.84        0.04     0.02   0.915
  25                        62.14       0.00       0.00       3.62      51.47       5.37      56.84        0.03     0.02   0.915
  26                        62.14       0.00       0.00       3.62      50.00       4.78      54.78        0.28     0.15   0.882
  27                        62.14       0.00       0.00      21.70       6.11      30.75      36.86        0.00     0.00   0.593
  28                        62.14       0.00       0.00       3.62      51.30       5.24      56.54        0.01     0.00   0.910
  29                        62.14       0.00       0.00      21.70       6.07      27.80      33.87        0.01     0.00   0.545
  30                        62.14       0.00       0.00       3.62      51.50       5.39      56.89        0.01     0.00   0.916
  31                        62.14       0.00       0.00       3.62      51.18       5.18      56.36        0.02     0.01   0.907
  32                        62.14       0.00       0.00      21.70       6.07      27.12      33.19        0.02     0.01   0.534
  33                        62.14       0.00       0.00       3.62      51.21       5.19      56.40        0.04     0.03   0.908
  34                        62.14       0.00       0.00       3.62      51.28       5.07      56.35        0.06     0.04   0.907
  35                        62.14       0.00       0.00      21.70       6.06      25.82      31.89        0.05     0.02   0.513
  36                        62.14       0.00       0.00       3.62      51.26       5.22      56.49        0.03     0.02   0.909
  37                        62.14       0.00       0.00       3.62      51.19       5.19      56.38        0.03     0.02   0.907
  38                        62.14       0.00       0.00       8.44      38.84      10.79      49.63        0.11     0.06   0.799
  39                        62.14       0.00       0.00       3.62      50.75       5.01      55.76        0.20     0.12   0.897
  40                        62.14       0.00       0.00       3.62      51.30       5.24      56.54        0.02     0.01   0.910
  41                        62.14       0.00       0.00       3.62      51.31       5.25      56.56        0.03     0.02   0.910
  42                        62.14       0.00       0.00       3.62      51.38       5.30      56.68        0.03     0.02   0.912
  43                        62.14       0.00       0.00       3.62      51.45       5.35      56.80        0.01     0.00   0.914
  44                        62.14       0.00       0.00       3.62      51.49       5.38      56.87        0.00     0.00   0.915
  45                        62.14       0.00       0.00       3.62      51.42       5.32      56.74        0.02     0.01   0.913
  46                        62.14       0.00       0.00       3.62       0.00       0.00       0.00        0.00     0.00   0.000
  47                        62.14       0.00       0.00       3.62      51.32       5.26      56.58        0.03     0.02   0.911
  48                        62.14       0.00       0.00       3.62      51.46       5.36      56.82        0.00     0.00   0.914
  49                        62.14       0.00       0.00       8.44      39.06      11.26      50.32        0.05     0.03   0.810
  50                        62.14       0.00       0.00       3.62      51.24       5.21      56.45        0.05     0.03   0.908
  51                        62.14       0.00       0.00       3.62      51.48       5.37      56.85        0.00     0.00   0.915
  52                        62.14       0.00       0.00       8.44      39.16      11.48      50.64        0.04     0.03   0.815
  53                        62.14       0.00       0.00       8.44      39.11      11.37      50.48        0.08     0.05   0.812
  54                        62.14       0.00       0.00       3.62      51.33       5.26      56.59        0.03     0.02   0.911
  55                        62.14       0.00       0.00       3.62      50.42       4.91      55.33        0.16     0.10   0.891
  56                        62.14       0.00       0.00       3.62      51.34       5.27      56.61        0.03     0.02   0.911
  57                        62.14       0.00       0.00      21.70       6.06      25.25      31.31        0.11     0.04   0.504
  58                        62.14       0.00       0.00       3.62      51.21       5.20      56.41        0.03     0.02   0.908
  59                        62.14       0.00       0.00       3.62      51.37       5.29      56.66        0.03     0.02   0.912
  60                        62.14       0.00       0.00       3.62      51.41       5.32      56.73        0.03     0.02   0.913
  61                        62.14       0.00       0.00       3.62      51.42       5.32      56.74        0.02     0.01   0.913
  62                        62.14       0.00       0.00       3.62      50.67       4.99      55.66        0.18     0.10   0.896
  63                        62.14       0.00       0.00       3.62      51.06       5.13      56.19        0.05     0.03   0.904
  64                        62.14       0.00       0.00       3.62      51.27       5.23      56.50        0.03     0.02   0.909
  65                        62.14       0.00       0.00       3.62      51.40       5.31      56.71        0.03     0.02   0.913
  66                        62.14       0.00       0.00       3.62      50.87       5.06      55.93        0.13     0.08   0.900
  67                        62.14       0.00       0.00       3.62      50.41       4.90      55.32        0.18     0.10   0.890
  68                        62.14       0.00       0.00       3.62       0.00       0.00       0.00        0.00     0.00   0.000
  69                        62.14       0.00       0.00       3.62      51.27       5.29      56.57        0.02     0.01   0.910
  70                        62.14       0.00       0.00       8.44      38.79      10.68      49.47        0.03     0.02   0.796
  71                        62.14       0.00       0.00       3.62      51.19       5.18      56.37        0.03     0.02   0.907
  72                        62.14       0.00       0.00       3.62      50.97       5.09      56.07        0.03     0.02   0.902
  73                        62.14       0.00       0.00       3.62       0.00       0.00       0.00        0.00     0.00   0.000
  74                        62.14       0.00       0.00       8.44      38.60      10.31      48.91        1.03     0.55   0.787
  75                        62.14       0.00       0.00       3.62       0.00       0.00       0.00        0.00     0.00   0.000
  76                        62.14       0.00       0.00       8.44      38.48      10.08      48.56        0.63     0.33   0.782
  77                        62.14       0.00       0.00       3.62       0.00       0.00       0.00        0.00     0.00   0.000
  78                        62.14       0.00       0.00       3.62       0.00       0.00       0.00        0.00     0.00   0.000
  79                        62.14       0.00       0.00       3.62       0.00       0.00       0.00        0.00     0.00   0.000
  80                        62.14       0.00       0.00       3.62       0.00       0.00       0.00        0.00     0.00   0.000
  81                        62.14       0.00       0.00       8.44       0.00       0.00       0.00        0.00     0.00   0.000
  82                        62.14       0.00       0.00       3.62      51.52       5.40      56.92        0.01     0.00   0.916
  83                        62.14       0.00       0.00       3.62      51.25       5.22      56.47        0.05     0.03   0.909
  84                        62.14       0.00       0.00       3.62      51.33       5.26      56.60        0.02     0.01   0.911
  85                        62.14       0.00       0.00      21.70       6.07      27.99      34.07        0.05     0.03   0.548
  86                        62.14       0.00       0.00       3.62      51.49       5.38      56.87        0.04     0.02   0.915
  87                        62.14       0.00       0.00       3.62      51.19       5.19      56.38        0.02     0.01   0.907
  88                        62.14       0.00       0.00       3.62      51.45       5.35      56.80        0.02     0.01   0.914
  89                        62.14       0.00       0.00       3.62      51.45       5.35      56.81        0.03     0.02   0.914
  90                        62.14       0.00       0.00       3.62      51.34       5.27      56.61        0.02     0.01   0.911
  91                        62.14       0.00       0.00       3.62      51.54       5.42      56.97        0.01     0.00   0.917
  92                        62.14       0.00       0.00       3.62      51.52       5.41      56.93        0.01     0.00   0.916
  93                        62.14       0.00       0.00       3.62      50.87       5.05      55.92        0.27     0.16   0.900
  94                        62.14       0.00       0.00       3.62      51.48       5.38      56.86        0.03     0.02   0.915
  95                        62.14       0.00       0.00       3.62      51.64       5.46      57.10        0.00     0.00   0.919
  96                        62.14       0.00       0.00       3.62      51.42       5.32      56.74        0.02     0.02   0.913
  97                        62.14       0.00       0.00       3.62      51.41       5.32      56.73        0.00     0.00   0.913
  98                        62.14       0.00       0.00       3.62      51.51       5.39      56.90        0.02     0.01   0.916
  99                        62.14       0.00       0.00       3.62      51.48       5.37      56.85        0.04     0.02   0.915
  100                       62.14       0.00       0.00      21.70       6.06      25.59      31.65        0.09     0.03   0.509
  101                       62.14       0.00       0.00       3.62      51.35       5.28      56.63        0.02     0.01   0.911
  102                       62.14       0.00       0.00       3.62       0.00       0.00       0.00        0.00     0.00   0.000
  103                       62.14       0.00       0.00       3.62      50.84       5.04      55.89        0.08     0.05   0.899
  104                       62.14       0.00       0.00       3.62      51.18       5.18      56.36        0.05     0.03   0.907
  105                       62.14       0.00       0.00       8.44      38.69      10.48      49.17        0.21     0.11   0.791
  106                       62.14       0.00       0.00       3.62      51.40       5.31      56.70        0.01     0.01   0.913
  107                       62.14       0.00       0.00       3.62       0.00       0.00       0.00        0.00     0.00   0.000
  108                       62.14       0.00       0.00       3.62      51.15       5.17      56.32        0.03     0.02   0.906
  109                       62.14       0.00       0.00       3.62      50.60       4.96      55.56        0.19     0.11   0.894
  110                       62.14       0.00       0.00       3.62      51.53       5.41      56.94        0.02     0.01   0.916
  111                       62.14       0.00       0.00       3.62      51.45       5.35      56.79        0.02     0.01   0.914
  112                       62.14       0.00       0.00       3.62      51.50       5.36      56.85        0.02     0.01   0.915
  113                       62.14       0.00       0.00       3.62      50.49       4.93      55.41        0.45     0.26   0.892
  114                       62.14       0.00       0.00       3.62      51.33       5.27      56.60        0.04     0.02   0.911
  115                       62.14       0.00       0.00       8.44      38.76      10.63      49.39        0.22     0.12   0.795
  116                       62.14       0.00       0.00       3.62       0.00       0.00       0.00        0.00     0.00   0.000
  
  
  ******************
  Node Depth Summary
  ******************
  
  ---------------------------------------------------------------------------------
                                 Average  Maximum  Maximum  Time of Max    Reported
                                   Depth    Depth      HGL   Occurrence   Max Depth
  Node                 Type       Meters   Meters   Meters  days hr:min      Meters
  ---------------------------------------------------------------------------------
  PSYS1289520          JUNCTION     0.02     0.15  1888.15     0  00:54        0.13
  PSYS1271413          JUNCTION     1.56     2.41  1887.34     0  00:55        2.41
  PSYS1272029          JUNCTION     1.78     2.68  1887.31     0  00:55        2.67
  PSYS1289511          JUNCTION     0.02     0.05  1887.93     0  00:46        0.04
  PSYS1271418          JUNCTION     0.02     0.05  1887.97     0  00:55        0.05
  PSYS1271420          JUNCTION     2.53     3.51  1887.78     0  00:46        3.47
  PSYS1271427          JUNCTION     0.02     0.07  1887.91     0  01:00        0.05
  PSYS1271832          JUNCTION     1.29     2.31  1887.71     0  00:48        2.25
  PSYS1271831          JUNCTION     0.04     0.09  1888.00     0  00:55        0.09
  PSYS1271827          JUNCTION     0.02     0.05  1887.96     0  00:55        0.05
  PSYS1271451          JUNCTION     0.93     1.67  1888.52     0  00:47        1.42
  PSYS1271458          JUNCTION     0.05     0.10  1888.47     0  00:55        0.10
  PSYS1271817          JUNCTION     1.28     2.70  1888.24     0  00:48        2.64
  PSYS1271812          JUNCTION     1.69     3.17  1888.30     0  00:48        3.07
  PSYS1271814          JUNCTION     0.06     0.12  1888.41     0  00:55        0.12
  PSYS1289519          JUNCTION     1.60     2.68  1888.31     0  00:46        2.51
  PSYS1272026          JUNCTION     0.02     0.05  1888.08     0  00:55        0.05
  PSYS1272399          JUNCTION     1.46     2.58  1888.16     0  00:55        2.58
  PSYS1272715          JUNCTION     0.02     0.05  1887.91     0  00:55        0.05
  PSYS1271423          JUNCTION     0.04     0.09  1887.93     0  00:55        0.09
  PSYS1272711          JUNCTION     4.44     5.67  1887.61     0  00:49        5.66
  PSYS1271830          JUNCTION     0.02     0.04  1887.94     0  00:55        0.04
  PSYS1271434          JUNCTION     0.04     0.09  1888.23     0  00:55        0.09
  PSYS1271825          JUNCTION     0.02     0.04  1888.08     0  00:55        0.04
  PSYS1271824          JUNCTION     1.70     3.03  1888.11     0  00:48        3.01
  PSYS1271439          JUNCTION     0.02     0.05  1888.30     0  00:47        0.04
  PSYS1271457          JUNCTION     0.02     0.05  1888.35     0  00:55        0.05
  PSYS1271815          JUNCTION     1.92     3.40  1888.24     0  00:48        3.35
  PSYS1272406          JUNCTION     0.60     1.67  1888.64     0  00:47        1.50
  PSYS1289764          JUNCTION     1.54     2.37  1888.04     0  00:55        2.37
  PSYS1289523          JUNCTION     1.59     2.52  1888.16     0  00:54        2.51
  PSYS1271414          JUNCTION     0.04     0.08  1888.14     0  00:55        0.08
  PSYS1289771          JUNCTION     1.43     2.15  1887.88     0  00:55        2.15
  PSYS1271416          JUNCTION     0.03     0.07  1888.00     0  00:55        0.07
  PSYS1272410          JUNCTION     0.73     1.98  1888.56     0  00:47        1.70
  PSYS1271425          JUNCTION     2.33     3.22  1887.80     0  00:47        3.22
  PSYS1271424          JUNCTION     0.02     0.07  1887.82     0  01:06        0.05
  PSYS1271829          JUNCTION     1.98     3.13  1887.84     0  00:48        3.08
  PSYS1271430          JUNCTION     0.02     0.14  1888.04     0  00:55        0.11
  PSYS1271453          JUNCTION     0.04     0.13  1888.52     0  00:54        0.13
  PSYS1289526          JUNCTION     1.76     2.70  1888.15     0  00:45        2.55
  PSYS1289760          JUNCTION     1.46     2.30  1888.05     0  00:55        2.30
  PSYS1289765          JUNCTION     1.22     2.04  1888.04     0  00:55        2.04
  PSYS1289522          JUNCTION     0.03     0.20  1888.15     0  00:54        0.18
  PSYS1289516          JUNCTION     0.02     0.25  1888.18     0  00:47        0.11
  PSYS1272027          JUNCTION     1.92     2.84  1887.41     0  00:55        2.83
  PSYS1272402          JUNCTION     1.84     2.70  1887.58     0  00:47        2.70
  PSYS1271429          JUNCTION     1.88     2.86  1888.00     0  00:47        2.86
  PSYS1271828          JUNCTION     0.04     0.10  1888.03     0  00:55        0.10
  PSYS1271438          JUNCTION     0.04     0.09  1888.39     0  00:55        0.09
  PSYS1289512          JUNCTION     1.24     2.15  1888.07     0  00:46        2.00
  PSYS1289510          JUNCTION     1.24     2.29  1888.20     0  00:46        1.93
  PSYS1272411          JUNCTION     0.00     0.03  1888.30     0  00:47        0.01
  PSYS1271417          JUNCTION     1.82     2.85  1887.75     0  00:47        2.73
  PSYS1272392          JUNCTION     1.24     2.35  1888.25     0  00:47        2.31
  PSYS1272395          JUNCTION     0.63     1.50  1888.24     0  00:47        1.50
  PSYS1272400          JUNCTION     1.37     2.46  1888.08     0  00:55        2.46
  PSYS1271426          JUNCTION     0.04     0.10  1887.97     0  00:55        0.10
  PSYS1271834          JUNCTION     0.04     0.10  1888.02     0  00:55        0.10
  PSYS1271833          JUNCTION     0.01     0.02  1887.94     0  00:55        0.02
  PSYS1271431          JUNCTION     0.03     0.08  1888.12     0  00:55        0.08
  PSYS1271432          JUNCTION     2.37     3.48  1888.13     0  00:47        3.43
  PSYS1271826          JUNCTION     1.32     2.52  1887.97     0  00:48        2.52
  PSYS1271437          JUNCTION     0.04     0.10  1888.25     0  00:55        0.10
  PSYS1271450          JUNCTION     2.09     3.38  1888.36     0  00:47        3.18
  PSYS1271822          JUNCTION     1.82     3.18  1888.13     0  00:48        3.18
  PSYS1271820          JUNCTION     1.24     2.60  1888.17     0  00:48        2.58
  PSYS1271818          JUNCTION     0.02     0.07  1888.24     0  00:48        0.04
  PSYS1271410          JUNCTION     1.86     2.60  1887.05     0  00:55        2.60
  PSYS1272407          JUNCTION     0.02     0.08  1888.68     0  00:55        0.08
  PSYS1289525          JUNCTION     0.02     0.04  1888.00     0  00:55        0.04
  PSYS1271411          JUNCTION     0.01     0.03  1888.20     0  00:55        0.03
  PSYS1289513          JUNCTION     0.02     0.07  1887.97     0  00:46        0.04
  PSYS1272393          JUNCTION     0.01     0.08  1888.22     0  00:48        0.07
  PSYS1272712          JUNCTION     1.35     2.28  1887.58     0  00:49        2.27
  PSYS1271811          JUNCTION     0.10     0.18  1888.53     0  00:55        0.18
  PSYS1271810          JUNCTION     0.02     0.04  1888.43     0  00:55        0.04
  PSYS1289527          JUNCTION     0.03     0.13  1888.02     0  01:15        0.12
  PSYS1289524          JUNCTION     1.69     2.45  1887.97     0  00:46        2.45
  PSYS1289766          JUNCTION     1.22     2.03  1888.02     0  00:55        2.03
  PSYS1289515          JUNCTION     1.28     2.34  1888.26     0  00:46        2.12
  PSYS1271415          JUNCTION     2.34     3.32  1887.56     0  00:47        3.29
  PSYS1272028          JUNCTION     0.02     0.05  1888.10     0  00:55        0.05
  PSYS1272394          JUNCTION     0.78     1.75  1888.21     0  00:47        1.75
  PSYS1272398          JUNCTION     1.33     2.45  1888.22     0  00:47        2.42
  PSYS1272714          JUNCTION     1.52     2.47  1887.55     0  00:54        2.46
  PSYS1272401          JUNCTION     1.29     2.24  1887.86     0  00:50        2.24
  PSYS1271428          JUNCTION     2.52     3.49  1887.90     0  00:47        3.49
  PSYS1271435          JUNCTION     1.67     2.79  1888.20     0  00:47        2.71
  PSYS1271454          JUNCTION     0.07     0.14  1888.65     0  01:00        0.14
  PSYS1271819          JUNCTION     0.02     0.05  1888.16     0  00:48        0.04
  PSYS1271809          JUNCTION     1.05     2.60  1888.41     0  00:48        2.40
  PSYS1272405          JUNCTION     0.45     1.60  1888.82     0  00:46        1.34
  PSYS1272030          JUNCTION     0.00     0.00  1888.18     0  00:00        0.00
  PSYS1272409          JUNCTION     0.00     0.00  1888.55     0  00:47        0.00
  PSYS1272408          JUNCTION     0.48     1.63  1888.57     0  00:47        1.44
  PSYS1289762          JUNCTION     1.15     1.97  1888.05     0  00:55        1.96
  PSYS1289521          JUNCTION     1.70     2.62  1888.14     0  00:54        2.61
  PSYS1289768          JUNCTION     1.23     2.01  1887.99     0  00:55        2.01
  PSYS1289517          JUNCTION     1.49     2.39  1888.12     0  00:46        2.39
  PSYS1289518          JUNCTION     0.03     0.19  1888.19     0  00:46        0.07
  PSYS1289770          JUNCTION     1.64     2.45  1887.96     0  00:55        2.45
  PSYS1272025          JUNCTION     1.49     2.42  1887.49     0  00:55        2.42
  PSYS1271419          JUNCTION     2.31     3.32  1887.74     0  00:47        3.27
  PSYS1271421          JUNCTION     1.92     2.72  1887.71     0  00:46        2.72
  PSYS1271422          JUNCTION     0.02     0.04  1887.82     0  00:55        0.04
  PSYS1272713          JUNCTION     0.02     0.04  1887.99     0  00:55        0.04
  PSYS1271433          JUNCTION     0.02     0.04  1888.12     0  00:55        0.04
  PSYS1271455          JUNCTION     0.14     0.24  1888.75     0  01:00        0.24
  PSYS1271436          JUNCTION     0.02     0.05  1888.15     0  00:47        0.04
  PSYS1271452          JUNCTION     1.10     1.60  1888.51     0  00:47        1.60
  PSYS1271823          JUNCTION     0.04     0.15  1888.14     0  00:55        0.15
  PSYS1271821          JUNCTION     0.01     0.03  1888.17     0  00:55        0.03
  PSYS1271456          JUNCTION     1.54     2.82  1888.40     0  00:47        2.58
  PSYS1271813          JUNCTION     0.02     0.03  1888.30     0  00:55        0.03
  PSYS1271412          OUTFALL      0.28     0.48  1886.38     0  00:55        0.48
  
  
  *******************
  Node Inflow Summary
  *******************
  
  -------------------------------------------------------------------------------------------------
                                  Maximum  Maximum                  Lateral       Total        Flow
                                  Lateral    Total  Time of Max      Inflow      Inflow     Balance
                                   Inflow   Inflow   Occurrence      Volume      Volume       Error
  Node                 Type           CMS      CMS  days hr:min    10^6 ltr    10^6 ltr     Percent
  -------------------------------------------------------------------------------------------------
  PSYS1289520          JUNCTION     0.014    0.014     0  00:46      0.0216      0.0217       0.088
  PSYS1271413          JUNCTION     0.000    0.502     0  00:47           0        2.07       0.988
  PSYS1272029          JUNCTION     0.000    0.572     0  00:48           0        2.19       1.043
  PSYS1289511          JUNCTION     0.013    0.013     0  00:55      0.0201      0.0201       0.081
  PSYS1271418          JUNCTION     0.033    0.033     0  00:55      0.0526      0.0526       0.033
  PSYS1271420          JUNCTION     0.016    0.396     0  01:44      0.0256        1.79       0.617
  PSYS1271427          JUNCTION     0.004    0.026     0  00:55     0.00648      0.0416       0.047
  PSYS1271832          JUNCTION     0.022    0.534     0  00:55      0.0356        1.15       0.999
  PSYS1271831          JUNCTION     0.016    0.016     0  00:55      0.0247      0.0247       0.144
  PSYS1271827          JUNCTION     0.003    0.026     0  00:55     0.00545      0.0422       0.044
  PSYS1271451          JUNCTION     0.002    0.095     0  01:04     0.00298       0.275       0.442
  PSYS1271458          JUNCTION     0.027    0.027     0  00:55      0.0435      0.0435       0.093
  PSYS1271817          JUNCTION     0.003    0.191     0  00:55     0.00404       0.307       1.760
  PSYS1271812          JUNCTION     0.033    0.122     0  00:55       0.052       0.202       6.496
  PSYS1271814          JUNCTION     0.020    0.020     0  00:55      0.0317      0.0317       0.167
  PSYS1289519          JUNCTION     0.096    0.195     0  00:46       0.163        0.51       2.727
  PSYS1272026          JUNCTION     0.014    0.014     0  00:55      0.0222      0.0222       0.169
  PSYS1272399          JUNCTION     0.051    0.210     0  01:08      0.0836       0.761       0.636
  PSYS1272715          JUNCTION     0.013    0.013     0  00:55        0.02        0.02       0.231
  PSYS1271423          JUNCTION     0.023    0.023     0  00:55      0.0367      0.0367       0.094
  PSYS1272711          JUNCTION     0.018    0.618     0  00:47      0.0282        2.19       0.850
  PSYS1271830          JUNCTION     0.003    0.018     0  00:55     0.00445      0.0292       0.052
  PSYS1271434          JUNCTION     0.019    0.019     0  00:55      0.0301      0.0301       0.117
  PSYS1271825          JUNCTION     0.022    0.022     0  00:55      0.0345      0.0345       0.046
  PSYS1271824          JUNCTION     0.002    0.303     0  00:55     0.00391       0.644       2.290
  PSYS1271439          JUNCTION     0.004    0.023     0  00:55     0.00602      0.0363       0.046
  PSYS1271457          JUNCTION     0.004    0.031     0  00:55     0.00585      0.0493       0.039
  PSYS1271815          JUNCTION     0.049    0.171     0  00:55      0.0815       0.277       1.864
  PSYS1272406          JUNCTION     0.000    0.127     0  00:55           0       0.211       0.149
  PSYS1289764          JUNCTION     0.014    0.160     0  00:55      0.0218       0.499       1.932
  PSYS1289523          JUNCTION     0.203    0.203     0  00:55        0.37        0.37       0.215
  PSYS1271414          JUNCTION     0.103    0.103     0  00:55       0.176       0.176       0.019
  PSYS1289771          JUNCTION     0.038    0.279     0  00:55       0.107       0.889       1.843
  PSYS1271416          JUNCTION     0.081    0.081     0  00:55       0.133       0.133       0.021
  PSYS1272410          JUNCTION     0.000    0.127     0  00:55           0       0.213       0.203
  PSYS1271425          JUNCTION     0.026    0.337     0  00:55      0.0524        0.92       2.274
  PSYS1271424          JUNCTION     0.005    0.028     0  00:55      0.0076      0.0443       0.062
  PSYS1271829          JUNCTION     0.120    0.498     0  00:55       0.198         1.1       0.990
  PSYS1271430          JUNCTION     0.005    0.026     0  00:54     0.00723       0.041       0.071
  PSYS1271453          JUNCTION     0.020    0.020     0  01:00      0.0535      0.0535       0.095
  PSYS1289526          JUNCTION     0.046    0.070     0  00:55      0.0738       0.102       0.000
  PSYS1289760          JUNCTION     0.064    0.064     0  01:00       0.204       0.204       0.000
  PSYS1289765          JUNCTION     0.069    0.069     0  01:00       0.221       0.227       0.315
  PSYS1289522          JUNCTION     0.013    0.016     0  00:46      0.0202      0.0203       0.076
  PSYS1289516          JUNCTION     0.018    0.043     0  00:46      0.0287      0.0289       0.067
  PSYS1272027          JUNCTION     0.018    0.600     0  00:48      0.0295        2.22       1.604
  PSYS1272402          JUNCTION     0.261    0.696     0  00:55       0.442        1.62       0.380
  PSYS1271429          JUNCTION     0.030    0.334     0  00:55      0.0995       0.727       2.460
  PSYS1271828          JUNCTION     0.023    0.023     0  00:55      0.0368      0.0368       0.098
  PSYS1271438          JUNCTION     0.019    0.019     0  00:55      0.0303      0.0303       0.120
  PSYS1289512          JUNCTION     0.032    0.337     0  00:55      0.0517        1.02       0.667
  PSYS1289510          JUNCTION     0.018    0.368     0  00:55      0.0293        1.06       0.533
  PSYS1272411          JUNCTION     0.000    0.009     0  00:47           0     5.3e-05       0.425
  PSYS1271417          JUNCTION     0.010    0.406     0  00:47      0.0154        1.76       1.243
  PSYS1272392          JUNCTION     0.005    0.188     0  01:08     0.00871       0.658       0.376
  PSYS1272395          JUNCTION     0.328    0.328     0  00:55       0.624       0.624       0.053
  PSYS1272400          JUNCTION     0.111    0.294     0  00:55       0.204        0.96       0.673
  PSYS1271426          JUNCTION     0.022    0.022     0  00:55      0.0351      0.0351       0.107
  PSYS1271834          JUNCTION     0.013    0.013     0  00:55      0.0201      0.0201      -1.508
  PSYS1271833          JUNCTION     0.001    0.016     0  00:55     0.00119      0.0216       1.759
  PSYS1271431          JUNCTION     0.021    0.021     0  00:55      0.0338      0.0338       0.091
  PSYS1271432          JUNCTION     0.030    0.258     0  00:55      0.0908       0.591       2.889
  PSYS1271826          JUNCTION     0.160    0.489     0  00:55       0.263       0.934       1.743
  PSYS1271437          JUNCTION     0.021    0.021     0  00:55      0.0336      0.0336       0.114
  PSYS1271450          JUNCTION     0.005    0.155     0  00:55     0.00788       0.396       4.693
  PSYS1271822          JUNCTION     0.061    0.293     0  00:55       0.109        0.48       1.416
  PSYS1271820          JUNCTION     0.001    0.233     0  00:55     0.00189       0.375       1.819
  PSYS1271818          JUNCTION     0.017    0.017     0  00:55      0.0277      0.0277       0.052
  PSYS1271410          JUNCTION     0.018    1.064     0  00:55      0.0292        4.24       0.483
  PSYS1272407          JUNCTION     0.016    0.016     0  00:55      0.0257      0.0257       0.074
  PSYS1289525          JUNCTION     0.014    0.014     0  00:55      0.0218      0.0218       0.067
  PSYS1271411          JUNCTION     0.016    0.016     0  00:55      0.0288      0.0288       0.048
  PSYS1289513          JUNCTION     0.016    0.016     0  00:55      0.0261      0.0262       0.064
  PSYS1272393          JUNCTION     0.000    0.002     0  00:47           0    0.000178       0.308
  PSYS1272712          JUNCTION     0.011    0.627     0  00:47      0.0177        2.16       0.512
  PSYS1271811          JUNCTION     0.018    0.018     0  00:55      0.0292      0.0292       0.351
  PSYS1271810          JUNCTION     0.038    0.056     0  00:55      0.0607      0.0898       0.021
  PSYS1289527          JUNCTION     0.016    0.016     0  00:55      0.0255      0.0267       0.122
  PSYS1289524          JUNCTION     0.081    0.439     0  00:55       0.132       0.441       3.570
  PSYS1289766          JUNCTION     0.023    0.183     0  00:55      0.0772       0.567       1.493
  PSYS1289515          JUNCTION     0.105    0.291     0  00:56       0.175       0.956       1.390
  PSYS1271415          JUNCTION     0.013    0.441     0  00:46      0.0204        1.91       1.182
  PSYS1272028          JUNCTION     0.011    0.011     0  00:55      0.0178      0.0178       0.166
  PSYS1272394          JUNCTION     0.000    0.154     0  00:55           0       0.521       0.047
  PSYS1272398          JUNCTION     0.018    0.194     0  01:08       0.029       0.682       0.607
  PSYS1272714          JUNCTION     0.000    0.605     0  00:47           0        2.17       0.739
  PSYS1272401          JUNCTION     0.118    0.413     0  00:55       0.214        1.17       0.387
  PSYS1271428          JUNCTION     0.031    0.343     0  00:55      0.0858       0.846       2.497
  PSYS1271435          JUNCTION     0.025    0.205     0  00:55      0.0416       0.471       4.237
  PSYS1271454          JUNCTION     0.008    0.076     0  01:00      0.0193       0.217       0.065
  PSYS1271819          JUNCTION     0.027    0.027     0  00:55      0.0449      0.0449       0.035
  PSYS1271809          JUNCTION     0.000    0.098     0  00:48           0      0.0933       6.742
  PSYS1272405          JUNCTION     0.111    0.111     0  00:55       0.186       0.186       0.409
  PSYS1272030          JUNCTION     0.000    0.000     0  00:00           0           0       0.000 ltr
  PSYS1272409          JUNCTION     0.000    0.000     0  00:47           0    7.23e-07       0.033 ltr
  PSYS1272408          JUNCTION     0.000    0.127     0  00:55           0       0.211       0.129
  PSYS1289762          JUNCTION     0.015    0.078     0  01:00      0.0466       0.252       2.901
  PSYS1289521          JUNCTION     0.006    0.276     0  00:55     0.00983       0.529       2.718
  PSYS1289768          JUNCTION     0.028    0.212     0  00:55       0.102       0.669       1.353
  PSYS1289517          JUNCTION     0.154    0.270     0  00:46       0.273        0.78       2.503
  PSYS1289518          JUNCTION     0.022    0.026     0  00:46      0.0343      0.0344       0.082
  PSYS1289770          JUNCTION     0.029    0.241     0  00:55       0.107       0.778       1.751
  PSYS1272025          JUNCTION     0.018    0.621     0  00:47      0.0294         2.2       1.198
  PSYS1271419          JUNCTION     0.012    0.397     0  01:44      0.0188        1.69       0.347
  PSYS1271421          JUNCTION     0.032    0.753     0  00:55      0.0515        1.89       1.980
  PSYS1271422          JUNCTION     0.020    0.020     0  00:55       0.032       0.032       0.050
  PSYS1272713          JUNCTION     0.010    0.010     0  00:55      0.0163      0.0163       0.169
  PSYS1271433          JUNCTION     0.004    0.023     0  00:55     0.00619      0.0362       0.046
  PSYS1271455          JUNCTION     0.068    0.068     0  01:00       0.198       0.198       0.100
  PSYS1271436          JUNCTION     0.004    0.025     0  00:55     0.00696      0.0406       0.042
  PSYS1271452          JUNCTION     0.004    0.102     0  00:55     0.00907        0.28       0.587
  PSYS1271823          JUNCTION     0.089    0.089     0  00:55       0.151       0.151       0.019
  PSYS1271821          JUNCTION     0.014    0.014     0  00:55      0.0217      0.0217       0.060
  PSYS1271456          JUNCTION     0.015    0.046     0  00:55       0.024       0.076       5.799
  PSYS1271813          JUNCTION     0.014    0.033     0  00:55      0.0218      0.0534       0.027
  PSYS1271412          OUTFALL      0.547    1.609     0  00:55        1.02         5.2       0.000
  
  
  **********************
  Node Surcharge Summary
  **********************
  
  Surcharging occurs when water rises above the top of the highest conduit.
  ---------------------------------------------------------------------
                                               Max. Height   Min. Depth
                                   Hours       Above Crown    Below Rim
  Node                 Type      Surcharged         Meters       Meters
  ---------------------------------------------------------------------
  PSYS1271413          JUNCTION        0.19          0.133        0.767
  PSYS1271420          JUNCTION        1.56          2.150        0.000
  PSYS1271832          JUNCTION        0.59          0.479        0.241
  PSYS1271451          JUNCTION        0.31          0.450        0.000
  PSYS1271817          JUNCTION        0.44          0.754        0.086
  PSYS1271812          JUNCTION        0.31          0.640        0.000
  PSYS1289519          JUNCTION        1.04          0.733        0.107
  PSYS1272399          JUNCTION        1.41          1.651        0.249
  PSYS1272711          JUNCTION        1.48          1.611        0.539
  PSYS1271824          JUNCTION        0.59          0.840        0.000
  PSYS1271815          JUNCTION        1.43          1.900        0.000
  PSYS1272406          JUNCTION        0.48          0.690        0.000
  PSYS1289764          JUNCTION        1.32          1.441        0.029
  PSYS1289523          JUNCTION        1.64          1.973        0.227
  PSYS1289771          JUNCTION        1.28          1.146        0.144
  PSYS1272410          JUNCTION        0.37          0.440        0.000
  PSYS1271425          JUNCTION        1.37          1.360        0.000
  PSYS1271829          JUNCTION        0.60          0.615        0.125
  PSYS1289526          JUNCTION        1.24          0.950        0.000
  PSYS1289760          JUNCTION        1.34          1.538        0.152
  PSYS1289765          JUNCTION        1.34          1.541        0.249
  PSYS1272402          JUNCTION        1.67          1.970        0.000
  PSYS1271429          JUNCTION        1.27          1.220        0.000
  PSYS1289512          JUNCTION        1.23          0.840        0.000
  PSYS1289510          JUNCTION        1.06          0.710        0.000
  PSYS1271417          JUNCTION        1.16          0.667        0.243
  PSYS1272392          JUNCTION        0.64          0.710        0.000
  PSYS1272395          JUNCTION        0.78          0.970        0.000
  PSYS1272400          JUNCTION        1.42          1.713        0.287
  PSYS1271432          JUNCTION        1.24          1.041        0.049
  PSYS1271826          JUNCTION        0.77          0.950        0.000
  PSYS1271450          JUNCTION        1.01          0.690        0.000
  PSYS1271822          JUNCTION        1.45          1.930        0.000
  PSYS1271820          JUNCTION        0.54          0.804        0.066
  PSYS1272712          JUNCTION        0.52          0.269        0.721
  PSYS1289524          JUNCTION        1.24          0.800        0.000
  PSYS1289766          JUNCTION        1.32          1.430        0.220
  PSYS1289515          JUNCTION        1.04          0.720        0.000
  PSYS1271415          JUNCTION        0.88          0.446        0.444
  PSYS1272394          JUNCTION        0.94          1.150        0.000
  PSYS1272398          JUNCTION        1.39          1.554        0.266
  PSYS1272714          JUNCTION        0.53          0.287        0.783
  PSYS1272401          JUNCTION        1.43          1.560        0.000
  PSYS1271428          JUNCTION        1.29          1.240        0.000
  PSYS1271435          JUNCTION        1.24          1.160        0.000
  PSYS1271809          JUNCTION        0.26          0.640        0.000
  PSYS1272405          JUNCTION        0.55          1.060        0.000
  PSYS1272408          JUNCTION        0.49          0.650        0.000
  PSYS1289762          JUNCTION        1.29          1.365        0.305
  PSYS1289521          JUNCTION        1.24          1.004        0.056
  PSYS1289768          JUNCTION        1.32          1.412        0.188
  PSYS1289517          JUNCTION        1.04          0.550        0.000
  PSYS1289770          JUNCTION        1.30          1.296        0.254
  PSYS1271419          JUNCTION        1.57          2.161        0.269
  PSYS1271421          JUNCTION        1.27          0.910        0.000
  PSYS1271452          JUNCTION        0.66          0.400        0.000
  PSYS1271456          JUNCTION        1.23          1.090        0.000
  
  
  *********************
  Node Flooding Summary
  *********************
  
  Flooding refers to all water that overflows a node, whether it ponds or not.
  --------------------------------------------------------------------------
                                                             Total   Maximum
                                 Maximum   Time of Max       Flood    Ponded
                        Hours       Rate    Occurrence      Volume     Depth
  Node                 Flooded       CMS   days hr:min    10^6 ltr    Meters
  --------------------------------------------------------------------------
  PSYS1271420             0.01     0.023      0  00:47       0.000     0.000
  PSYS1271451             0.01     0.062      0  00:47       0.000     0.000
  PSYS1271812             0.01     0.045      0  00:48       0.000     0.000
  PSYS1271824             0.01     0.012      0  00:48       0.000     0.000
  PSYS1271815             0.01     0.018      0  00:48       0.000     0.000
  PSYS1272406             0.01     0.027      0  00:47       0.000     0.000
  PSYS1272410             0.01     0.059      0  00:47       0.000     0.000
  PSYS1271425             0.28     0.069      0  00:55       0.041     0.000
  PSYS1289526             0.01     0.021      0  00:45       0.000     0.000
  PSYS1272402             0.48     0.696      0  00:55       0.578     0.000
  PSYS1271429             0.07     0.049      0  00:55       0.004     0.000
  PSYS1289512             0.01     0.011      0  00:46       0.000     0.000
  PSYS1289510             0.01     0.035      0  00:46       0.000     0.000
  PSYS1272392             0.01     0.012      0  00:47       0.000     0.000
  PSYS1272395             0.35     0.191      0  00:55       0.104     0.000
  PSYS1271826             0.14     0.128      0  00:55       0.036     0.000
  PSYS1271450             0.01     0.070      0  00:47       0.000     0.000
  PSYS1271822             0.12     0.105      0  00:55       0.022     0.000
  PSYS1289524             0.49     0.439      0  00:55       0.324     0.000
  PSYS1289515             0.01     0.095      0  00:46       0.000     0.000
  PSYS1272394             0.33     0.154      0  00:55       0.083     0.000
  PSYS1272401             0.15     0.068      0  00:55       0.018     0.000
  PSYS1271428             0.14     0.059      0  00:55       0.018     0.000
  PSYS1271435             0.01     0.005      0  00:47       0.000     0.000
  PSYS1271809             0.01     0.061      0  00:48       0.000     0.000
  PSYS1272405             0.01     0.025      0  00:46       0.000     0.000
  PSYS1272408             0.01     0.021      0  00:47       0.000     0.000
  PSYS1289517             0.07     0.109      0  00:46       0.008     0.000
  PSYS1271421             0.96     0.753      0  00:55       1.087     0.000
  PSYS1271452             0.18     0.022      0  00:55       0.007     0.000
  PSYS1271456             0.01     0.006      0  00:47       0.000     0.000
  
  
  ***********************
  Outfall Loading Summary
  ***********************
  
  -----------------------------------------------------------
                         Flow       Avg       Max       Total
                         Freq      Flow      Flow      Volume
  Outfall Node           Pcnt       CMS       CMS    10^6 ltr
  -----------------------------------------------------------
  PSYS1271412           99.99     0.734     1.609       5.199
  -----------------------------------------------------------
  System                99.99     0.734     1.609       5.199
  
  
  ********************
  Link Flow Summary
  ********************
  
  -----------------------------------------------------------------------------
                                 Maximum  Time of Max   Maximum    Max/    Max/
                                  |Flow|   Occurrence   |Veloc|    Full    Full
  Link                 Type          CMS  days hr:min     m/sec    Flow   Depth
  -----------------------------------------------------------------------------
  12106964             CONDUIT     0.070     0  00:55      0.35    0.39    1.00
  12106960             CONDUIT     0.276     0  00:55      1.41    2.31    1.00
  12106962             CONDUIT     0.203     0  00:55      1.03    1.22    1.00
  12099099             CONDUIT     0.009     0  00:47      2.09    0.43    0.66
  12098525             CONDUIT     0.584     0  00:48      1.16    0.80    1.00
  12096546             CONDUIT     0.273     0  01:44      0.96    1.47    1.00
  12099126             CONDUIT     0.606     0  00:47      1.20    2.97    1.00
  12096550             CONDUIT     0.268     0  01:00      0.95    0.65    1.00
  12096555             CONDUIT     0.023     0  00:55      2.01    0.18    0.22
  12096556             CONDUIT     0.284     0  00:59      1.00    0.63    1.00
  12098153             CONDUIT     0.014     0  00:55      3.07    0.01    0.54
  12098143             CONDUIT     0.023     0  00:55      1.75    0.23    0.24
  12096574             CONDUIT     0.206     0  00:55      0.73    1.43    1.00
  12096584             CONDUIT     0.025     0  00:47      2.51    0.05    0.59
  12098126             CONDUIT     0.014     0  00:55      2.32    0.02    0.55
  12106934             CONDUIT     0.014     0  00:55      1.78    0.03    0.56
  12098534             CONDUIT     0.000     0  00:00      0.00    0.00    0.11
  12098529             CONDUIT     0.572     0  00:48      1.14    0.95    1.00
  12096539             CONDUIT     0.033     0  00:55      3.17    0.05    0.58
  12099104             CONDUIT     0.002     0  00:47      0.39    0.14    0.90
  12099127             CONDUIT     0.012     0  00:55      1.08    0.07    0.59
  12096553             CONDUIT     0.028     0  00:55      2.29    0.05    0.62
  12099116             CONDUIT     0.357     0  00:47      1.82    1.01    1.00
  12098149             CONDUIT     0.015     0  00:55      1.30    0.21    0.23
  12098146             CONDUIT     0.498     0  00:55      1.76    1.16    1.00
  12096568             CONDUIT     0.258     0  00:55      0.91    0.64    1.00
  12096573             CONDUIT     0.019     0  00:55      1.65    0.19    0.22
  12096593             CONDUIT     0.076     0  01:00      1.36    0.31    0.74
  12096599             CONDUIT     0.031     0  00:55      2.82    0.06    0.58
  12099095             CONDUIT     0.000     0  00:47      0.12    0.02    0.50
  12107420             CONDUIT     0.064     0  01:00      0.31    0.10    1.00
  12107423             CONDUIT     0.078     0  00:59      0.28    0.21    1.00
  12107426             CONDUIT     0.069     0  00:59      0.56    0.10    1.00
  12107428             CONDUIT     0.161     0  00:55      0.57    1.27    1.00
  12106951             CONDUIT     0.211     0  00:46      1.07    0.83    1.00
  12096528             CONDUIT     0.481     0  00:55      1.70    2.20    1.00
  12098526             CONDUIT     0.014     0  00:55      1.32    0.07    0.50
  12099112             CONDUIT     0.294     0  00:55      1.50    1.92    1.00
  12096559             CONDUIT     0.026     0  00:55      2.26    0.05    0.62
  12096562             CONDUIT     0.286     0  00:55      1.01    0.57    1.00
  12098147             CONDUIT     0.018     0  00:55      2.18    0.04    0.57
  12096595             CONDUIT     0.068     0  01:00      1.53   16.11    0.65
  12098136             CONDUIT     0.090     0  00:55      4.87    0.11    0.75
  12096586             CONDUIT     0.019     0  00:55      1.57    0.21    0.23
  12106931             CONDUIT     0.043     0  00:54      1.91    0.13    0.82
  12107433             CONDUIT     0.212     0  00:55      0.75    0.63    1.00
  12107435             CONDUIT     0.241     0  00:55      0.85    1.00    1.00
  12106946             CONDUIT     0.291     0  00:56      1.48   20.34    1.00
  12106929             CONDUIT     0.017     0  00:47      1.80    0.05    0.62
  12096532             CONDUIT     0.457     0  00:47      1.62    3.00    1.00
  12096536             CONDUIT     0.402     0  01:44      1.42   26.28    1.00
  12099110             CONDUIT     0.210     0  01:08      1.07    0.89    1.00
  12098152             CONDUIT     0.534     0  00:54      1.06    0.52    1.00
  12096571             CONDUIT     0.023     0  00:55      2.51    0.04    0.57
  12096580             CONDUIT     0.155     0  00:55      0.55    0.87    1.00
  12098110             CONDUIT     0.123     0  00:55      0.51    0.69    1.00
  12098107             CONDUIT     0.018     0  00:55      0.79    0.37    0.37
  12106930             CONDUIT     0.041     0  00:47      1.80    0.13    0.91
  12096549             CONDUIT     0.020     0  00:55      2.14    0.04    0.57
  12099122             CONDUIT     0.599     0  00:47      1.28    0.76    1.00
  12099119             CONDUIT     0.618     0  00:47      1.23    0.62    1.00
  12096561             CONDUIT     0.022     0  00:55      1.66    0.24    0.24
  12099114             CONDUIT     0.344     0  00:54      1.75    0.64    1.00
  12096592             CONDUIT     0.022     0  00:55      0.61    0.12    0.72
  12098127             CONDUIT     0.028     0  00:48      3.58    0.03    0.59
  12098120             CONDUIT     0.191     0  00:55      0.68    0.60    1.00
  12098113             CONDUIT     0.020     0  00:55      1.40    0.58    0.26
  12096522             CONDUIT     1.063     0  00:55      3.97    0.98    0.90
  12099087             CONDUIT     0.111     0  00:55      0.88    0.95    1.00
  12099090             CONDUIT     0.127     0  00:55      1.25    0.55    1.00
  12106933             CONDUIT     0.026     0  00:47      1.77    0.06    0.83
  12106957             CONDUIT     0.150     0  00:46      0.77    0.75    1.00
  12106932             CONDUIT     0.029     0  00:47      1.67    0.09    0.75
  12107430             CONDUIT     0.183     0  00:55      0.65    1.54    1.00
  12099094             CONDUIT     0.127     0  00:55      1.01    0.74    1.00
  12099105             CONDUIT     0.144     0  01:08      1.78    0.26    1.00
  12099123             CONDUIT     0.010     0  00:55      1.16    0.05    0.57
  12096567             CONDUIT     0.022     0  00:54      2.06    0.14    0.35
  12098140             CONDUIT     0.393     0  00:58      1.39    2.68    1.00
  12098132             CONDUIT     0.302     0  00:55      1.07    3.48    1.00
  12096589             CONDUIT     0.094     0  01:04      5.33    5.84    1.00
  12098129             CONDUIT     0.209     0  00:58      0.74    0.61    1.00
  12096601             CONDUIT     0.027     0  00:55      1.91    0.26    0.25
  12098116             CONDUIT     0.172     0  00:55      0.61    0.28    1.00
  12098104             CONDUIT     0.071     0  00:48      0.37    0.24    1.00
  12106953             CONDUIT     0.199     0  00:46      1.02    1.39    1.00
  12096527             CONDUIT     0.016     0  00:55      3.78    0.02    0.23
  12096531             CONDUIT     0.103     0  00:55      4.91    0.17    0.64
  12098533             CONDUIT     0.566     0  00:49      2.00    1.83    1.00
  12096535             CONDUIT     0.081     0  00:55      4.23    0.14    0.62
  12106944             CONDUIT     0.337     0  00:55      1.72    0.66    1.00
  12099102             CONDUIT     0.189     0  01:08      0.96    1.07    1.00
  12096542             CONDUIT     0.396     0  01:44      2.02    0.93    1.00
  12096540             CONDUIT     0.397     0  01:44      1.40   23.37    1.00
  12099507             CONDUIT     0.144     0  01:08      2.18    0.40    1.00
  12096565             CONDUIT     0.047     0  00:54      2.41    0.09    0.73
  12096579             CONDUIT     0.021     0  00:55      1.64    0.23    0.24
  12096587             CONDUIT     0.095     0  01:04      1.74    0.63    1.00
  12098124             CONDUIT     0.233     0  00:55      0.82    0.94    1.00
  12098121             CONDUIT     0.028     0  00:48      2.67    0.05    0.62
  12098105             CONDUIT     0.056     0  00:55      5.29    0.02    0.55
  12099091             CONDUIT     0.016     0  00:55      3.00    0.55    0.90
  12106935             CONDUIT     0.025     0  00:55      1.83    0.06    0.72
  12106928             CONDUIT     0.013     0  00:46      1.57    0.04    0.58
  12098530             CONDUIT     0.011     0  00:55      1.29    0.05    0.42
  12099098             CONDUIT     0.127     0  00:55      1.10    0.59    1.00
  12099108             CONDUIT     0.194     0  01:08      1.12    0.65    1.00
  12098155             CONDUIT     0.016     0  00:55      1.46    1.24    0.21
  12098141             CONDUIT     0.026     0  00:55      2.38    0.05    0.58
  12096577             CONDUIT     0.025     0  00:55      2.62    0.05    0.58
  12098135             CONDUIT     0.022     0  00:55      2.59    0.04    0.57
  12096596             CONDUIT     0.046     0  00:55      0.41    0.08    1.00
  12098111             CONDUIT     0.033     0  00:55      4.57    0.01    0.54
  12000001             CONDUIT     0.279     0  00:55      0.99    0.46    1.00
  12000002             CONDUIT     0.368     0  00:55      1.30    0.24    1.00
  
  
  ***************************
  Flow Classification Summary
  ***************************
  
  -------------------------------------------------------------------------------------
                      Adjusted    ---------- Fraction of Time in Flow Class ---------- 
                       /Actual         Up    Down  Sub   Sup   Up    Down  Norm  Inlet 
  Conduit               Length    Dry  Dry   Dry   Crit  Crit  Crit  Crit  Ltd   Ctrl  
  -------------------------------------------------------------------------------------
  12106964                1.00   0.00  0.00  0.00  1.00  0.00  0.00  0.00  0.05  0.00
  12106960                1.00   0.00  0.03  0.00  0.97  0.00  0.00  0.00  0.01  0.00
  12106962                1.00   0.02  0.00  0.00  0.88  0.00  0.09  0.00  0.00  0.00
  12099099                1.00   0.40  0.00  0.00  0.21  0.00  0.00  0.39  0.59  0.00
  12098525                1.00   0.00  0.00  0.00  0.92  0.00  0.00  0.08  0.07  0.00
  12096546                1.00   0.00  0.12  0.00  0.83  0.00  0.05  0.00  0.00  0.00
  12099126                1.00   0.00  0.01  0.00  0.99  0.00  0.00  0.00  0.02  0.00
  12096550                1.00   0.00  0.00  0.00  0.90  0.00  0.00  0.10  0.05  0.00
  12096555                1.00   0.00  0.00  0.00  0.01  0.99  0.00  0.00  0.02  0.00
  12096556                1.00   0.04  0.05  0.00  0.91  0.00  0.00  0.00  0.04  0.00
  12098153                1.00   0.01  0.00  0.00  0.39  0.02  0.00  0.58  0.41  0.00
  12098143                1.00   0.00  0.00  0.00  0.01  0.99  0.00  0.00  0.91  0.00
  12096574                1.00   0.00  0.00  0.00  0.89  0.00  0.00  0.11  0.00  0.00
  12096584                1.00   0.00  0.00  0.00  0.62  0.00  0.00  0.37  0.62  0.00
  12098126                1.00   0.00  0.00  0.00  0.38  0.02  0.00  0.60  0.40  0.00
  12106934                1.00   0.00  0.00  0.00  0.63  0.00  0.00  0.36  0.64  0.00
  12098534                1.00   0.91  0.09  0.00  0.00  0.00  0.00  0.00  0.00  0.00
  12098529                1.00   0.08  0.05  0.00  0.85  0.00  0.02  0.00  0.00  0.00
  12096539                1.00   0.00  0.00  0.00  0.62  0.01  0.00  0.37  0.63  0.00
  12099104                1.00   0.38  0.02  0.00  0.33  0.00  0.00  0.27  0.42  0.00
  12099127                1.00   0.00  0.00  0.00  0.36  0.01  0.00  0.63  0.37  0.00
  12096553                1.00   0.00  0.00  0.00  0.73  0.01  0.00  0.26  0.65  0.00
  12099116                1.00   0.03  0.06  0.00  0.88  0.00  0.03  0.00  0.00  0.00
  12098149                1.00   0.00  0.00  0.00  0.01  0.99  0.00  0.00  0.83  0.00
  12098146                1.00   0.00  0.00  0.00  0.93  0.00  0.00  0.06  0.01  0.00
  12096568                1.00   0.04  0.07  0.00  0.89  0.00  0.00  0.00  0.10  0.00
  12096573                1.00   0.00  0.00  0.00  0.01  0.99  0.00  0.00  0.11  0.00
  12096593                1.00   0.00  0.00  0.00  0.87  0.00  0.00  0.12  0.74  0.00
  12096599                1.00   0.00  0.00  0.00  0.62  0.00  0.00  0.38  0.62  0.00
  12099095                1.00   0.73  0.06  0.00  0.21  0.00  0.00  0.00  0.60  0.00
  12107420                1.00   0.00  0.00  0.00  0.94  0.00  0.00  0.06  0.06  0.00
  12107423                1.00   0.00  0.00  0.00  0.93  0.00  0.00  0.07  0.09  0.00
  12107426                1.00   0.00  0.00  0.00  0.95  0.00  0.00  0.05  0.04  0.00
  12107428                1.00   0.00  0.04  0.00  0.92  0.00  0.04  0.00  0.00  0.00
  12106951                1.00   0.00  0.00  0.00  1.00  0.00  0.00  0.00  0.15  0.00
  12096528                1.00   0.01  0.10  0.00  0.88  0.00  0.02  0.00  0.00  0.00
  12098526                1.00   0.00  0.00  0.00  0.20  0.04  0.00  0.76  0.24  0.00
  12099112                1.00   0.05  0.01  0.00  0.78  0.00  0.00  0.15  0.03  0.00
  12096559                1.00   0.00  0.00  0.00  0.69  0.01  0.00  0.30  0.64  0.00
  12096562                1.00   0.05  0.00  0.00  0.86  0.00  0.00  0.09  0.06  0.00
  12098147                1.00   0.00  0.00  0.00  0.39  0.02  0.00  0.58  0.42  0.00
  12096595                1.00   0.00  0.00  0.00  0.27  0.73  0.00  0.00  0.00  0.00
  12098136                1.00   0.00  0.00  0.00  0.31  0.08  0.00  0.60  0.29  0.00
  12096586                1.00   0.00  0.00  0.00  0.01  0.99  0.00  0.00  0.18  0.00
  12106931                1.00   0.00  0.00  0.00  0.60  0.01  0.00  0.38  0.57  0.00
  12107433                1.00   0.00  0.13  0.00  0.86  0.00  0.01  0.00  0.00  0.00
  12107435                1.00   0.13  0.00  0.00  0.81  0.00  0.05  0.01  0.04  0.00
  12106946                1.00   0.00  0.00  0.00  1.00  0.00  0.00  0.00  0.00  0.00
  12106929                1.00   0.00  0.00  0.00  0.62  0.00  0.00  0.37  0.63  0.00
  12096532                1.00   0.02  0.00  0.00  0.91  0.00  0.00  0.07  0.01  0.00
  12096536                1.00   0.00  0.00  0.00  0.91  0.00  0.00  0.08  0.00  0.00
  12099110                1.00   0.07  0.02  0.00  0.90  0.00  0.00  0.00  0.15  0.00
  12098152                1.00   0.03  0.00  0.00  0.89  0.00  0.00  0.09  0.02  0.00
  12096571                1.00   0.00  0.00  0.00  0.63  0.01  0.00  0.36  0.64  0.00
  12096580                1.00   0.00  0.09  0.00  0.91  0.00  0.00  0.00  0.06  0.00
  12098110                1.00   0.09  0.00  0.00  0.75  0.00  0.16  0.00  0.00  0.00
  12098107                1.00   0.00  0.00  0.00  1.00  0.00  0.00  0.00  0.05  0.00
  12106930                1.00   0.00  0.00  0.00  0.61  0.01  0.00  0.38  0.57  0.00
  12096549                1.00   0.00  0.00  0.00  0.66  0.01  0.00  0.33  0.67  0.00
  12099122                1.00   0.00  0.00  0.00  0.81  0.00  0.00  0.18  0.00  0.00
  12099119                1.00   0.09  0.00  0.00  0.85  0.00  0.03  0.02  0.00  0.00
  12096561                1.00   0.00  0.00  0.00  0.01  0.99  0.00  0.00  0.80  0.00
  12099114                1.00   0.05  0.00  0.00  0.94  0.00  0.00  0.00  0.19  0.00
  12096592                1.00   0.00  0.00  0.00  0.87  0.00  0.00  0.12  0.76  0.00
  12098127                1.00   0.00  0.00  0.00  0.34  0.03  0.00  0.63  0.36  0.00
  12098120                1.00   0.01  0.07  0.00  0.92  0.00  0.00  0.00  0.14  0.00
  12098113                1.00   0.00  0.00  0.00  0.08  0.91  0.00  0.00  0.00  0.00
  12096522                1.00   0.15  0.09  0.00  0.07  0.69  0.00  0.00  0.00  0.00
  12099087                1.00   0.05  0.00  0.00  0.37  0.00  0.00  0.59  0.02  0.00
  12099090                1.00   0.08  0.00  0.00  0.45  0.37  0.00  0.10  0.42  0.00
  12106933                1.00   0.00  0.00  0.00  0.64  0.00  0.00  0.36  0.49  0.00
  12106957                1.00   0.04  0.00  0.00  0.89  0.00  0.00  0.07  0.01  0.00
  12106932                1.00   0.00  0.00  0.00  0.61  0.01  0.00  0.38  0.55  0.00
  12107430                1.00   0.00  0.00  0.00  1.00  0.00  0.00  0.00  0.05  0.00
  12099094                1.00   0.09  0.00  0.00  0.56  0.25  0.00  0.10  0.19  0.00
  12099105                1.00   0.04  0.00  0.00  0.70  0.00  0.00  0.26  0.00  0.00
  12099123                1.00   0.00  0.00  0.00  0.35  0.01  0.00  0.64  0.36  0.00
  12096567                1.00   0.00  0.00  0.00  0.01  0.99  0.00  0.00  0.04  0.00
  12098140                1.00   0.00  0.00  0.00  0.92  0.00  0.00  0.08  0.00  0.00
  12098132                1.00   0.02  0.00  0.00  0.94  0.00  0.00  0.05  0.00  0.00
  12096589                1.00   0.13  0.00  0.00  0.18  0.00  0.69  0.00  0.00  0.00
  12098129                1.00   0.06  0.04  0.00  0.90  0.00  0.00  0.00  0.07  0.00
  12096601                1.00   0.00  0.00  0.00  0.01  0.99  0.00  0.00  0.11  0.00
  12098116                1.00   0.07  0.03  0.00  0.88  0.00  0.02  0.00  0.01  0.00
  12098104                1.00   0.02  0.00  0.00  0.91  0.00  0.00  0.07  0.16  0.00
  12106953                1.00   0.00  0.05  0.00  0.87  0.00  0.08  0.00  0.00  0.00
  12096527                1.00   0.00  0.00  0.00  0.00  0.12  0.00  0.88  0.09  0.00
  12096531                1.00   0.00  0.00  0.00  0.00  0.38  0.00  0.62  0.37  0.00
  12098533                1.00   0.14  0.00  0.00  0.84  0.00  0.02  0.01  0.00  0.00
  12096535                1.00   0.00  0.00  0.00  0.50  0.11  0.00  0.38  0.62  0.00
  12106944                1.00   0.00  0.08  0.00  0.92  0.00  0.00  0.00  0.09  0.00
  12099102                1.00   0.06  0.00  0.00  0.92  0.00  0.03  0.00  0.00  0.00
  12096542                1.00   0.00  0.05  0.00  0.95  0.00  0.00  0.00  0.06  0.00
  12096540                1.00   0.11  0.00  0.00  0.83  0.00  0.07  0.00  0.00  0.00
  12099507                1.00   0.03  0.00  0.00  0.57  0.08  0.00  0.32  0.12  0.00
  12096565                1.00   0.00  0.00  0.00  0.66  0.01  0.00  0.33  0.57  0.00
  12096579                1.00   0.00  0.00  0.00  0.01  0.99  0.00  0.00  0.20  0.00
  12096587                1.00   0.17  0.00  0.00  0.54  0.03  0.00  0.25  0.26  0.00
  12098124                1.00   0.02  0.02  0.00  0.89  0.00  0.07  0.00  0.00  0.00
  12098121                1.00   0.00  0.00  0.00  0.30  0.02  0.00  0.68  0.32  0.00
  12098105                1.00   0.00  0.00  0.00  0.21  0.06  0.00  0.73  0.26  0.00
  12099091                1.00   0.00  0.00  0.00  0.00  0.26  0.00  0.74  0.15  0.00
  12106935                1.00   0.00  0.00  0.00  0.63  0.00  0.00  0.36  0.37  0.00
  12106928                1.00   0.00  0.00  0.00  0.61  0.00  0.00  0.38  0.61  0.00
  12098530                1.00   0.00  0.00  0.00  0.16  0.03  0.00  0.81  0.19  0.00
  12099098                1.00   0.11  0.00  0.00  0.68  0.01  0.00  0.20  0.13  0.00
  12099108                1.00   0.08  0.00  0.00  0.74  0.16  0.00  0.02  0.01  0.00
  12098155                1.00   0.00  0.00  0.00  0.28  0.72  0.00  0.00  0.07  0.00
  12098141                1.00   0.00  0.00  0.00  0.53  0.04  0.00  0.42  0.57  0.00
  12096577                1.00   0.00  0.00  0.00  0.63  0.01  0.00  0.36  0.64  0.00
  12098135                1.00   0.00  0.00  0.00  0.39  0.03  0.00  0.58  0.42  0.00
  12096596                1.00   0.00  0.00  0.00  0.91  0.00  0.00  0.08  0.14  0.00
  12098111                1.00   0.00  0.00  0.00  0.27  0.02  0.00  0.70  0.29  0.00
  12000001                1.00   0.13  0.00  0.00  0.80  0.00  0.00  0.07  0.07  0.00
  12000002                1.00   0.15  0.05  0.00  0.81  0.00  0.00  0.00  0.14  0.00
  
  
  *************************
  Conduit Surcharge Summary
  *************************
  
  ----------------------------------------------------------------------------
                                                           Hours        Hours 
                         --------- Hours Full --------   Above Full   Capacity
  Conduit                Both Ends  Upstream  Dnstream   Normal Flow   Limited
  ----------------------------------------------------------------------------
  12106964                    1.69      1.69      1.71      0.01         0.01
  12106960                    1.68      1.68      1.69      0.20         0.22
  12106962                    1.63      1.63      1.64      0.08         0.01
  12099099                    0.01      0.01      0.37      0.01         0.01
  12098525                    1.52      1.52      1.55      0.01         0.01
  12096546                    1.56      1.56      1.57      0.59         0.01
  12099126                    1.51      1.51      1.52      1.41         1.44
  12096550                    1.57      1.57      1.60      0.01         0.01
  12096556                    1.58      1.58      1.62      0.01         0.01
  12098153                    0.01      0.01      0.59      0.01         0.01
  12096574                    1.49      1.49      1.49      0.20         0.22
  12096584                    0.01      0.01      1.23      0.01         0.01
  12098126                    0.01      0.01      0.59      0.01         0.01
  12106934                    0.01      0.01      1.24      0.01         0.01
  12098529                    1.52      1.52      1.54      0.01         0.01
  12096539                    0.01      0.01      1.16      0.01         0.01
  12099104                    0.01      0.01      0.62      0.01         0.01
  12099127                    0.01      0.01      0.53      0.01         0.01
  12096553                    0.01      0.01      1.37      0.01         0.01
  12099116                    1.53      1.53      1.74      0.01         0.01
  12098146                    1.48      1.48      1.51      0.17         0.01
  12096568                    1.49      1.49      1.51      0.01         0.01
  12096593                    0.01      0.01      0.66      0.01         0.01
  12096599                    0.01      0.01      1.23      0.01         0.01
  12099095                    0.01      0.01      1.21      0.01         0.01
  12107420                    1.29      1.29      1.34      0.01         0.01
  12107423                    1.29      1.29      1.32      0.01         0.01
  12107426                    1.34      1.34      1.39      0.01         0.01
  12107428                    1.32      1.32      1.32      0.38         0.40
  12106951                    1.58      1.58      1.63      0.01         0.01
  12096528                    1.56      1.56      1.58      1.28         0.01
  12099112                    1.43      1.43      1.44      0.72         0.73
  12096559                    0.01      0.01      1.29      0.01         0.01
  12096562                    1.51      1.51      1.57      0.01         0.01
  12098147                    0.01      0.01      0.60      0.01         0.01
  12096595                    0.01      0.01      0.01      1.45         0.01
  12098136                    0.01      0.01      0.59      0.01         0.01
  12106931                    0.01      0.01      1.04      0.01         0.01
  12107433                    1.30      1.30      1.32      0.01         0.01
  12107435                    1.28      1.28      1.30      0.01         0.01
  12106946                    1.57      1.57      1.58      1.61         0.01
  12106929                    0.01      0.01      1.23      0.01         0.01
  12096532                    1.57      1.57      1.58      1.32         0.01
  12096536                    1.58      1.58      1.58      1.61         1.53
  12099110                    1.41      1.41      1.42      0.01         0.01
  12098152                    1.44      1.44      1.48      0.01         0.01
  12096571                    0.01      0.01      1.24      0.01         0.01
  12096580                    1.48      1.48      1.49      0.01         0.01
  12098110                    1.43      1.43      1.43      0.01         0.01
  12106930                    0.01      0.01      1.04      0.01         0.01
  12096549                    0.01      0.01      1.27      0.01         0.01
  12099122                    1.46      1.46      1.48      0.01         0.01
  12099119                    1.46      1.46      1.48      0.01         0.01
  12099114                    1.43      1.43      1.67      0.01         0.01
  12096592                    0.01      0.01      0.87      0.01         0.01
  12098127                    0.01      0.01      0.54      0.01         0.01
  12098120                    1.44      1.44      1.45      0.01         0.01
  12096522                    0.01      0.01      1.51      0.01         0.01
  12099087                    0.55      0.55      0.59      0.01         0.01
  12099090                    0.59      0.59      0.73      0.01         0.01
  12106933                    0.01      0.01      1.24      0.01         0.01
  12106957                    1.63      1.63      1.64      0.01         0.01
  12106932                    0.01      0.01      1.04      0.01         0.01
  12107430                    1.32      1.32      1.32      0.61         0.64
  12099094                    0.73      0.73      0.83      0.01         0.01
  12099105                    0.96      0.96      1.13      0.01         0.01
  12099123                    0.01      0.01      0.52      0.01         0.01
  12098140                    1.47      1.47      1.48      0.50         0.49
  12098132                    1.47      1.47      1.47      0.66         0.02
  12096589                    1.18      1.18      1.22      1.22         0.01
  12098129                    1.45      1.45      1.47      0.01         0.01
  12098116                    1.44      1.44      1.44      0.01         0.01
  12098104                    1.41      1.41      1.43      0.01         0.01
  12106953                    1.62      1.62      1.63      0.01         0.01
  12096531                    0.01      0.01      0.19      0.01         0.01
  12098533                    1.55      1.55      1.57      1.05         0.01
  12096535                    0.01      0.01      0.88      0.01         0.01
  12106944                    1.30      1.30      1.57      0.01         0.01
  12099102                    1.39      1.39      1.40      0.09         0.01
  12096542                    1.66      1.66      1.68      0.01         0.01
  12096540                    1.56      1.57      1.56      1.59         1.53
  12099507                    0.78      0.78      0.94      0.01         0.01
  12096565                    0.01      0.01      1.27      0.01         0.01
  12096587                    0.31      0.31      1.01      0.01         0.01
  12098124                    1.45      1.45      1.45      0.01         0.01
  12098121                    0.01      0.01      0.44      0.01         0.01
  12098105                    0.01      0.01      0.26      0.01         0.01
  12099091                    0.01      0.01      0.48      0.01         0.01
  12106935                    0.01      0.01      1.24      0.01         0.01
  12106928                    0.01      0.01      1.06      0.01         0.01
  12099098                    0.82      0.82      1.00      0.01         0.01
  12099108                    1.39      1.39      1.41      0.01         0.01
  12098155                    0.01      0.01      0.01      0.04         0.01
  12098141                    0.01      0.01      0.77      0.01         0.01
  12096577                    0.01      0.01      1.24      0.01         0.01
  12098135                    0.01      0.01      0.62      0.01         0.01
  12096596                    1.47      1.47      1.49      0.01         0.01
  12098111                    0.01      0.01      0.31      0.01         0.01
  12000001                    1.28      1.28      1.49      0.01         0.01
  12000002                    1.26      1.26      1.61      0.01         0.01
  

  Analysis begun on:  Sun Apr 20 16:17:41 2025
  Analysis ended on:  Sun Apr 20 16:17:43 2025
  Total elapsed time: 00:00:02