
  EPA STORM WATER MANAGEMENT MODEL - VERSION 5.2 (Build 5.2.4)
  PYSWMM TOOLKIT API - VERSION v1.0 (2023-11-27)
  ------------------------------------------------------------

  INP file created on 2025/3/25 16:00:29 by Kato with inpPINS version 0.0.3.0 
  Title/Notes: 
  WARNING 04: minimum elevation drop used for Conduit 12096595
  WARNING 04: minimum elevation drop used for Conduit 12106946
  WARNING 04: minimum elevation drop used for Conduit 12096536
  WARNING 04: minimum elevation drop used for Conduit 12096540
  WARNING 04: minimum elevation drop used for Conduit 12098155
  
  ****************
  Analysis Options
  ****************
  Flow Units ............... CMS
  Process Models:
    Rainfall/Runoff ........ YES
    RDII ................... NO
    Snowmelt ............... NO
    Groundwater ............ NO
    Flow Routing ........... YES
    Ponding Allowed ........ NO
    Water Quality .......... NO
  Infiltration Method ...... HORTON
  Flow Routing Method ...... DYNWAVE
  Surcharge Method ......... EXTRAN
  Starting Date ............ 03/18/2025 00:00:00
  Ending Date .............. 03/18/2025 02:00:00
  Antecedent Dry Days ...... 0.0
  Report Time Step ......... 00:05:00
  Wet Time Step ............ 00:05:00
  Dry Time Step ............ 01:00:00
  Routing Time Step ........ 10.00 sec
  Variable Time Step ....... YES
  Maximum Trials ........... 8
  Number of Threads ........ 1
  Head Tolerance ........... 0.001500 m
  
  
  *********************
  Rainfall File Summary
  *********************
  Station    First        Last         Recording   Periods    Periods    Periods
  ID         Date         Date         Frequency  w/Precip    Missing    Malfunc.
  -------------------------------------------------------------------------------
  1          03/18/2025   03/18/2025       5 min        25          0          0

  
  
  **************************        Volume         Depth
  Runoff Quantity Continuity     hectare-m            mm
  **************************     ---------       -------
  Total Precipitation ......         1.540        83.601
  Evaporation Loss .........         0.000         0.000
  Infiltration Loss ........         0.191        10.392
  Surface Runoff ...........         1.201        65.207
  Final Storage ............         0.165         8.986
  Continuity Error (%) .....        -1.176
  
  
  **************************        Volume        Volume
  Flow Routing Continuity        hectare-m      10^6 ltr
  **************************     ---------     ---------
  Dry Weather Inflow .......         0.000         0.000
  Wet Weather Inflow .......         1.187        11.874
  Groundwater Inflow .......         0.000         0.000
  RDII Inflow ..............         0.000         0.000
  External Inflow ..........         0.000         0.000
  External Outflow .........         0.629         6.286
  Flooding Loss ............         0.487         4.867
  Evaporation Loss .........         0.000         0.000
  Exfiltration Loss ........         0.000         0.000
  Initial Stored Volume ....         0.000         0.000
  Final Stored Volume ......         0.044         0.436
  Continuity Error (%) .....         2.398
  
  
  *************************
  Highest Continuity Errors
  *************************
  Node PSYS1271809 (5.42%)
  Node PSYS1271812 (4.98%)
  Node PSYS1271456 (4.11%)
  Node PSYS1271450 (4.03%)
  Node PSYS1271435 (3.11%)
  
  
  ***************************
  Time-Step Critical Elements
  ***************************
  Link 12098105 (54.77%)
  Link 12096527 (24.33%)
  Link 12098136 (12.81%)
  Link 12098111 (5.90%)
  Link 12098155 (1.30%)
  
  
  ********************************
  Highest Flow Instability Indexes
  ********************************
  Link 12098155 (62)
  Link 12098153 (51)
  Link 12106962 (19)
  Link 12098116 (17)
  Link 12098152 (13)
  
  
  *********************************
  Most Frequent Nonconverging Nodes
  *********************************
  Node PSYS1271412 (8.13%)
  Node PSYS1289765 (2.12%)
  Node PSYS1289764 (2.01%)
  Node PSYS1289766 (1.98%)
  Node PSYS1289760 (1.98%)
  
  
  *************************
  Routing Time Step Summary
  *************************
  Minimum Time Step           :     0.39 sec
  Average Time Step           :     0.51 sec
  Maximum Time Step           :    10.00 sec
  % of Time in Steady State   :     0.00
  Average Iterations per Step :     2.98
  % of Steps Not Converging   :     8.13
  Time Step Frequencies       :
     10.000 -  5.493 sec      :     0.03 %
      5.493 -  3.017 sec      :     0.01 %
      3.017 -  1.657 sec      :     0.01 %
      1.657 -  0.910 sec      :     0.09 %
      0.910 -  0.500 sec      :    99.86 %
  
  
  ***************************
  Subcatchment Runoff Summary
  ***************************
  
  ------------------------------------------------------------------------------------------------------------------------------
                            Total      Total      Total      Total     Imperv       Perv      Total       Total     Peak  Runoff
                           Precip      Runon       Evap      Infil     Runoff     Runoff     Runoff      Runoff   Runoff   Coeff
  Subcatchment                 mm         mm         mm         mm         mm         mm         mm    10^6 ltr      CMS
  ------------------------------------------------------------------------------------------------------------------------------
  1                         83.60       0.00       0.00       8.59      52.63      17.62      70.25        0.53     0.30   0.840
  2                         83.60       0.00       0.00      22.08       8.23      40.41      48.64        0.37     0.13   0.582
  3                         83.60       0.00       0.00       3.68      69.79       8.37      78.16        0.04     0.02   0.935
  4                         83.60       0.00       0.00      22.08       8.23      40.59      48.82        0.34     0.12   0.584
  5                         83.60       0.00       0.00      22.08       8.23      40.62      48.85        0.08     0.03   0.584
  6                         83.60       0.00       0.00       3.68      69.91       8.41      78.33        0.01     0.01   0.937
  7                         83.60       0.00       0.00       3.68      69.13       8.17      77.30        0.18     0.11   0.925
  8                         83.60       0.00       0.00       3.68      69.35       8.24      77.59        0.10     0.06   0.928
  9                         83.60       0.00       0.00       3.68      69.77       8.36      78.14        0.03     0.02   0.935
  10                        83.60       0.00       0.00       3.68      69.88       8.40      78.28        0.03     0.02   0.936
  11                        83.60       0.00       0.00       3.68      69.87       8.40      78.27        0.03     0.02   0.936
  12                        83.60       0.00       0.00      22.08       8.24      42.28      50.52        0.33     0.13   0.604
  13                        83.60       0.00       0.00      22.08       8.22      38.78      47.00        0.13     0.04   0.562
  14                        83.60       0.00       0.00      22.08       8.20      34.52      42.71        0.19     0.05   0.511
  15                        83.60       0.00       0.00      22.08       8.22      39.75      47.97        0.17     0.06   0.574
  16                        83.60       0.00       0.00      22.08       8.21      36.61      44.82        0.18     0.05   0.536
  17                        83.60       0.00       0.00      22.08       8.23      41.63      49.86        0.15     0.06   0.596
  18                        83.60       0.00       0.00       3.68      69.96       8.43      78.39        0.01     0.01   0.938
  19                        83.60       0.00       0.00       3.68      69.92       8.42      78.34        0.01     0.01   0.937
  20                        83.60       0.00       0.00       3.68      69.88       8.40      78.28        0.05     0.03   0.936
  21                        83.60       0.00       0.00       3.68      69.95       8.43      78.38        0.01     0.01   0.938
  22                        83.60       0.00       0.00       3.68      69.63       8.32      77.96        0.05     0.03   0.932
  23                        83.60       0.00       0.00       8.59      53.02      18.44      71.46        0.22     0.13   0.855
  24                        83.60       0.00       0.00       3.68      69.93       8.42      78.35        0.05     0.03   0.937
  25                        83.60       0.00       0.00       3.68      69.92       8.42      78.34        0.05     0.03   0.937
  26                        83.60       0.00       0.00       3.68      68.06       7.85      75.91        0.38     0.22   0.908
  27                        83.60       0.00       0.00      22.08       8.26      49.33      57.59        0.00     0.00   0.689
  28                        83.60       0.00       0.00       3.68      69.63       8.32      77.95        0.01     0.00   0.932
  29                        83.60       0.00       0.00      22.08       8.26      46.05      54.31        0.01     0.01   0.650
  30                        83.60       0.00       0.00       3.68      69.98       8.44      78.42        0.01     0.01   0.938
  31                        83.60       0.00       0.00       3.68      69.46       8.27      77.73        0.03     0.02   0.930
  32                        83.60       0.00       0.00      22.08       8.25      45.24      53.49        0.03     0.02   0.640
  33                        83.60       0.00       0.00       3.68      69.50       8.28      77.78        0.06     0.04   0.930
  34                        83.60       0.00       0.00       3.68      69.14       8.17      77.31        0.08     0.05   0.925
  35                        83.60       0.00       0.00      22.08       8.24      43.66      51.90        0.09     0.04   0.621
  36                        83.60       0.00       0.00       3.68      69.58       8.31      77.88        0.04     0.03   0.932
  37                        83.60       0.00       0.00       3.68      69.48       8.28      77.76        0.04     0.02   0.930
  38                        83.60       0.00       0.00       8.59      52.75      17.88      70.64        0.16     0.09   0.845
  39                        83.60       0.00       0.00       3.68      68.93       8.11      77.04        0.28     0.17   0.922
  40                        83.60       0.00       0.00       3.68      69.63       8.32      77.95        0.03     0.02   0.932
  41                        83.60       0.00       0.00       3.68      69.64       8.33      77.97        0.04     0.03   0.933
  42                        83.60       0.00       0.00       3.68      69.76       8.36      78.12        0.04     0.03   0.934
  43                        83.60       0.00       0.00       3.68      69.88       8.40      78.28        0.01     0.01   0.936
  44                        83.60       0.00       0.00       3.68      69.95       8.43      78.38        0.01     0.00   0.938
  45                        83.60       0.00       0.00       3.68      69.82       8.38      78.20        0.03     0.02   0.935
  46                        83.60       0.00       0.00       3.68       0.00       0.00       0.00        0.00     0.00   0.000
  47                        83.60       0.00       0.00       3.68      69.66       8.33      77.99        0.04     0.02   0.933
  48                        83.60       0.00       0.00       3.68      69.91       8.41      78.32        0.00     0.00   0.937
  49                        83.60       0.00       0.00       8.59      53.02      18.43      71.45        0.06     0.04   0.855
  50                        83.60       0.00       0.00       3.68      69.54       8.30      77.84        0.07     0.04   0.931
  51                        83.60       0.00       0.00       3.68      69.94       8.42      78.36        0.01     0.00   0.937
  52                        83.60       0.00       0.00       8.59      53.14      18.69      71.83        0.06     0.04   0.859
  53                        83.60       0.00       0.00       8.59      53.08      18.56      71.65        0.12     0.07   0.857
  54                        83.60       0.00       0.00       3.68      69.67       8.33      78.01        0.04     0.02   0.933
  55                        83.60       0.00       0.00       3.68      68.56       8.00      76.55        0.23     0.13   0.916
  56                        83.60       0.00       0.00       3.68      69.69       8.34      78.03        0.05     0.03   0.933
  57                        83.60       0.00       0.00      22.08       8.24      42.96      51.20        0.18     0.08   0.612
  58                        83.60       0.00       0.00       3.68      69.51       8.29      77.79        0.04     0.02   0.931
  59                        83.60       0.00       0.00       3.68      69.74       8.35      78.09        0.04     0.02   0.934
  60                        83.60       0.00       0.00       3.68      69.81       8.38      78.18        0.04     0.02   0.935
  61                        83.60       0.00       0.00       3.68      69.82       8.38      78.20        0.03     0.02   0.935
  62                        83.60       0.00       0.00       3.68      68.85       8.08      76.93        0.24     0.15   0.920
  63                        83.60       0.00       0.00       3.68      69.31       8.23      77.54        0.07     0.04   0.928
  64                        83.60       0.00       0.00       3.68      69.59       8.31      77.90        0.04     0.03   0.932
  65                        83.60       0.00       0.00       3.68      69.80       8.37      78.17        0.04     0.03   0.935
  66                        83.60       0.00       0.00       3.68      69.08       8.16      77.24        0.19     0.11   0.924
  67                        83.60       0.00       0.00       3.68      68.54       7.99      76.54        0.25     0.14   0.915
  68                        83.60       0.00       0.00       3.68       0.00       0.00       0.00        0.00     0.00   0.000
  69                        83.60       0.00       0.00       3.68      69.59       8.31      77.90        0.03     0.02   0.932
  70                        83.60       0.00       0.00       8.59      52.69      17.75      70.45        0.04     0.02   0.843
  71                        83.60       0.00       0.00       3.68      69.47       8.27      77.74        0.04     0.02   0.930
  72                        83.60       0.00       0.00       3.68      69.20       8.19      77.40        0.04     0.02   0.926
  73                        83.60       0.00       0.00       3.68       0.00       0.00       0.00        0.00     0.00   0.000
  74                        83.60       0.00       0.00       8.59      52.47      17.30      69.77        1.47     0.81   0.835
  75                        83.60       0.00       0.00       3.68       0.00       0.00       0.00        0.00     0.00   0.000
  76                        83.60       0.00       0.00       8.59      52.33      17.02      69.36        0.90     0.49   0.830
  77                        83.60       0.00       0.00       3.68       0.00       0.00       0.00        0.00     0.00   0.000
  78                        83.60       0.00       0.00       3.68       0.00       0.00       0.00        0.00     0.00   0.000
  79                        83.60       0.00       0.00       3.68       0.00       0.00       0.00        0.00     0.00   0.000
  80                        83.60       0.00       0.00       3.68       0.00       0.00       0.00        0.00     0.00   0.000
  81                        83.60       0.00       0.00       8.59       0.00       0.00       0.00        0.00     0.00   0.000
  82                        83.60       0.00       0.00       3.68      70.01       8.46      78.47        0.01     0.01   0.939
  83                        83.60       0.00       0.00       3.68      69.56       8.30      77.86        0.07     0.04   0.931
  84                        83.60       0.00       0.00       3.68      69.68       8.34      78.01        0.03     0.02   0.933
  85                        83.60       0.00       0.00      22.08       8.25      46.28      54.53        0.09     0.05   0.652
  86                        83.60       0.00       0.00       3.68      69.96       8.43      78.39        0.05     0.03   0.938
  87                        83.60       0.00       0.00       3.68      69.48       8.28      77.76        0.02     0.02   0.930
  88                        83.60       0.00       0.00       3.68      69.89       8.40      78.29        0.02     0.01   0.936
  89                        83.60       0.00       0.00       3.68      69.89       8.41      78.30        0.04     0.03   0.937
  90                        83.60       0.00       0.00       3.68      69.69       8.34      78.03        0.03     0.02   0.933
  91                        83.60       0.00       0.00       3.68      70.06       8.48      78.54        0.01     0.01   0.939
  92                        83.60       0.00       0.00       3.68      70.02       8.46      78.48        0.01     0.00   0.939
  93                        83.60       0.00       0.00       3.68      69.07       8.15      77.23        0.37     0.22   0.924
  94                        83.60       0.00       0.00       3.68      69.95       8.43      78.38        0.04     0.02   0.938
  95                        83.60       0.00       0.00       3.68      70.15       8.56      78.71        0.00     0.00   0.942
  96                        83.60       0.00       0.00       3.68      69.82       8.38      78.21        0.03     0.02   0.935
  97                        83.60       0.00       0.00       3.68      69.81       8.38      78.19        0.01     0.00   0.935
  98                        83.60       0.00       0.00       3.68      69.99       8.45      78.44        0.03     0.02   0.938
  99                        83.60       0.00       0.00       3.68      69.94       8.42      78.37        0.05     0.03   0.937
  100                       83.60       0.00       0.00      22.08       8.24      43.38      51.62        0.14     0.06   0.617
  101                       83.60       0.00       0.00       3.68      69.71       8.34      78.05        0.02     0.02   0.934
  102                       83.60       0.00       0.00       3.68       0.00       0.00       0.00        0.00     0.00   0.000
  103                       83.60       0.00       0.00       3.68      69.05       8.14      77.19        0.12     0.07   0.923
  104                       83.60       0.00       0.00       3.68      69.46       8.27      77.73        0.07     0.04   0.930
  105                       83.60       0.00       0.00       8.59      52.57      17.51      70.09        0.29     0.16   0.838
  106                       83.60       0.00       0.00       3.68      69.79       8.37      78.15        0.01     0.01   0.935
  107                       83.60       0.00       0.00       3.68       0.00       0.00       0.00        0.00     0.00   0.000
  108                       83.60       0.00       0.00       3.68      69.42       8.26      77.68        0.04     0.02   0.929
  109                       83.60       0.00       0.00       3.68      68.76       8.06      76.82        0.26     0.16   0.919
  110                       83.60       0.00       0.00       3.68      70.03       8.47      78.49        0.02     0.01   0.939
  111                       83.60       0.00       0.00       3.68      69.88       8.40      78.27        0.03     0.02   0.936
  112                       83.60       0.00       0.00       3.68      69.90       8.41      78.30        0.03     0.02   0.937
  113                       83.60       0.00       0.00       3.68      68.63       8.02      76.65        0.62     0.37   0.917
  114                       83.60       0.00       0.00       3.68      69.68       8.34      78.02        0.05     0.03   0.933
  115                       83.60       0.00       0.00       8.59      52.66      17.69      70.35        0.31     0.17   0.842
  116                       83.60       0.00       0.00       3.68       0.00       0.00       0.00        0.00     0.00   0.000
  
  
  ******************
  Node Depth Summary
  ******************
  
  ---------------------------------------------------------------------------------
                                 Average  Maximum  Maximum  Time of Max    Reported
                                   Depth    Depth      HGL   Occurrence   Max Depth
  Node                 Type       Meters   Meters   Meters  days hr:min      Meters
  ---------------------------------------------------------------------------------
  PSYS1289520          JUNCTION     0.03     0.19  1888.19     0  00:54        0.19
  PSYS1271413          JUNCTION     1.71     2.55  1887.48     0  00:55        2.55
  PSYS1272029          JUNCTION     1.96     2.76  1887.39     0  00:55        2.75
  PSYS1289511          JUNCTION     0.02     0.05  1887.93     0  00:55        0.05
  PSYS1271418          JUNCTION     0.02     0.05  1887.97     0  00:55        0.05
  PSYS1271420          JUNCTION     2.71     3.51  1887.78     0  00:41        3.51
  PSYS1271427          JUNCTION     0.03     0.09  1887.93     0  01:11        0.08
  PSYS1271832          JUNCTION     1.49     2.31  1887.71     0  00:54        2.31
  PSYS1271831          JUNCTION     0.05     0.11  1888.02     0  00:55        0.11
  PSYS1271827          JUNCTION     0.03     0.06  1887.97     0  00:55        0.06
  PSYS1271451          JUNCTION     1.03     1.48  1888.33     0  00:55        1.48
  PSYS1271458          JUNCTION     0.05     0.12  1888.49     0  00:55        0.12
  PSYS1271817          JUNCTION     1.51     2.70  1888.24     0  00:55        2.70
  PSYS1271812          JUNCTION     1.92     3.14  1888.27     0  00:55        3.14
  PSYS1271814          JUNCTION     0.07     0.14  1888.43     0  00:55        0.14
  PSYS1289519          JUNCTION     1.76     2.62  1888.25     0  00:41        2.56
  PSYS1272026          JUNCTION     0.03     0.06  1888.09     0  00:55        0.06
  PSYS1272399          JUNCTION     1.71     2.62  1888.20     0  00:54        2.61
  PSYS1272715          JUNCTION     0.03     0.06  1887.92     0  00:55        0.06
  PSYS1271423          JUNCTION     0.05     0.10  1887.94     0  00:55        0.10
  PSYS1272711          JUNCTION     4.70     5.71  1887.65     0  00:55        5.70
  PSYS1271830          JUNCTION     0.02     0.05  1887.95     0  00:55        0.05
  PSYS1271434          JUNCTION     0.05     0.10  1888.24     0  00:55        0.10
  PSYS1271825          JUNCTION     0.02     0.05  1888.09     0  00:55        0.05
  PSYS1271824          JUNCTION     1.93     3.03  1888.11     0  00:55        3.03
  PSYS1271439          JUNCTION     0.02     0.05  1888.30     0  00:55        0.05
  PSYS1271457          JUNCTION     0.03     0.06  1888.36     0  00:55        0.06
  PSYS1271815          JUNCTION     2.17     3.40  1888.24     0  00:54        3.39
  PSYS1272406          JUNCTION     0.75     1.67  1888.64     0  00:53        1.67
  PSYS1289764          JUNCTION     1.72     2.40  1888.07     0  00:50        2.40
  PSYS1289523          JUNCTION     1.76     2.60  1888.24     0  00:55        2.59
  PSYS1271414          JUNCTION     0.04     0.10  1888.16     0  00:55        0.10
  PSYS1289771          JUNCTION     1.59     2.21  1887.94     0  00:55        2.21
  PSYS1271416          JUNCTION     0.04     0.09  1888.02     0  00:55        0.09
  PSYS1272410          JUNCTION     0.95     1.89  1888.47     0  00:43        1.76
  PSYS1271425          JUNCTION     2.49     3.22  1887.80     0  00:42        3.22
  PSYS1271424          JUNCTION     0.03     0.07  1887.82     0  01:19        0.06
  PSYS1271829          JUNCTION     2.20     3.13  1887.84     0  00:54        3.13
  PSYS1271430          JUNCTION     0.03     0.16  1888.06     0  01:01        0.15
  PSYS1271453          JUNCTION     0.06     0.14  1888.53     0  00:50        0.12
  PSYS1289526          JUNCTION     1.92     2.56  1888.01     0  00:45        2.56
  PSYS1289760          JUNCTION     1.65     2.35  1888.10     0  00:54        2.35
  PSYS1289765          JUNCTION     1.41     2.08  1888.08     0  00:55        2.08
  PSYS1289522          JUNCTION     0.04     0.24  1888.19     0  00:54        0.24
  PSYS1289516          JUNCTION     0.03     0.16  1888.09     0  00:54        0.15
  PSYS1272027          JUNCTION     2.10     2.91  1887.48     0  00:55        2.90
  PSYS1272402          JUNCTION     2.05     2.70  1887.58     0  00:43        2.70
  PSYS1271429          JUNCTION     2.06     2.86  1888.00     0  00:42        2.86
  PSYS1271828          JUNCTION     0.05     0.11  1888.04     0  00:55        0.11
  PSYS1271438          JUNCTION     0.05     0.11  1888.41     0  00:55        0.11
  PSYS1289512          JUNCTION     1.37     2.15  1888.07     0  00:41        2.06
  PSYS1289510          JUNCTION     1.36     2.29  1888.20     0  00:41        1.97
  PSYS1272411          JUNCTION     0.00     0.07  1888.34     0  00:54        0.07
  PSYS1271417          JUNCTION     1.98     2.82  1887.72     0  00:55        2.82
  PSYS1272392          JUNCTION     1.49     2.35  1888.25     0  00:43        2.32
  PSYS1272395          JUNCTION     0.83     1.50  1888.24     0  00:43        1.50
  PSYS1272400          JUNCTION     1.62     2.52  1888.14     0  00:55        2.52
  PSYS1271426          JUNCTION     0.05     0.12  1887.99     0  00:55        0.12
  PSYS1271834          JUNCTION     0.05     0.12  1888.04     0  00:55        0.12
  PSYS1271833          JUNCTION     0.01     0.03  1887.95     0  00:55        0.03
  PSYS1271431          JUNCTION     0.04     0.09  1888.13     0  00:55        0.09
  PSYS1271432          JUNCTION     2.56     3.48  1888.13     0  00:55        3.48
  PSYS1271826          JUNCTION     1.54     2.52  1887.97     0  00:47        2.52
  PSYS1271437          JUNCTION     0.05     0.12  1888.27     0  00:55        0.12
  PSYS1271450          JUNCTION     2.29     3.38  1888.36     0  00:42        3.25
  PSYS1271822          JUNCTION     2.06     3.18  1888.13     0  00:47        3.18
  PSYS1271820          JUNCTION     1.47     2.60  1888.17     0  00:54        2.60
  PSYS1271818          JUNCTION     0.02     0.04  1888.21     0  00:55        0.04
  PSYS1271410          JUNCTION     2.00     2.70  1887.15     0  00:55        2.69
  PSYS1272407          JUNCTION     0.04     0.48  1889.08     0  00:55        0.48
  PSYS1289525          JUNCTION     0.02     0.04  1888.00     0  00:55        0.04
  PSYS1271411          JUNCTION     0.02     0.03  1888.20     0  00:55        0.03
  PSYS1289513          JUNCTION     0.02     0.05  1887.95     0  00:41        0.05
  PSYS1272393          JUNCTION     0.02     0.08  1888.22     0  00:55        0.08
  PSYS1272712          JUNCTION     1.54     2.32  1887.62     0  00:54        2.32
  PSYS1271811          JUNCTION     0.11     0.19  1888.54     0  00:55        0.19
  PSYS1271810          JUNCTION     0.02     0.05  1888.44     0  00:55        0.05
  PSYS1289527          JUNCTION     0.04     0.13  1888.02     0  00:45        0.12
  PSYS1289524          JUNCTION     1.85     2.45  1887.97     0  00:41        2.45
  PSYS1289766          JUNCTION     1.41     2.08  1888.07     0  01:02        2.08
  PSYS1289515          JUNCTION     1.42     2.34  1888.26     0  00:41        2.17
  PSYS1271415          JUNCTION     2.50     3.41  1887.65     0  00:55        3.41
  PSYS1272028          JUNCTION     0.02     0.05  1888.10     0  00:55        0.05
  PSYS1272394          JUNCTION     1.01     1.75  1888.21     0  00:43        1.75
  PSYS1272398          JUNCTION     1.58     2.44  1888.21     0  00:54        2.44
  PSYS1272714          JUNCTION     1.72     2.52  1887.60     0  00:54        2.52
  PSYS1272401          JUNCTION     1.51     2.24  1887.86     0  00:47        2.24
  PSYS1271428          JUNCTION     2.70     3.49  1887.90     0  00:42        3.49
  PSYS1271435          JUNCTION     1.86     2.79  1888.20     0  00:42        2.77
  PSYS1271454          JUNCTION     0.10     0.24  1888.75     0  00:55        0.24
  PSYS1271819          JUNCTION     0.02     0.04  1888.15     0  00:55        0.04
  PSYS1271809          JUNCTION     1.28     2.47  1888.28     0  00:55        2.46
  PSYS1272405          JUNCTION     0.59     1.60  1888.82     0  00:54        1.60
  PSYS1272030          JUNCTION     0.00     0.00  1888.18     0  00:00        0.00
  PSYS1272409          JUNCTION     0.00     0.00  1888.55     0  00:00        0.00
  PSYS1272408          JUNCTION     0.67     1.59  1888.53     0  00:43        1.56
  PSYS1289762          JUNCTION     1.33     2.01  1888.09     0  00:55        2.01
  PSYS1289521          JUNCTION     1.87     2.68  1888.20     0  00:54        2.67
  PSYS1289768          JUNCTION     1.41     2.08  1888.06     0  00:54        2.08
  PSYS1289517          JUNCTION     1.65     2.39  1888.12     0  00:41        2.39
  PSYS1289518          JUNCTION     0.03     0.18  1888.18     0  00:59        0.14
  PSYS1289770          JUNCTION     1.83     2.52  1888.03     0  00:54        2.51
  PSYS1272025          JUNCTION     1.68     2.48  1887.55     0  00:55        2.48
  PSYS1271419          JUNCTION     2.49     3.34  1887.76     0  00:54        3.33
  PSYS1271421          JUNCTION     2.07     2.72  1887.71     0  00:41        2.72
  PSYS1271422          JUNCTION     0.02     0.05  1887.83     0  00:55        0.05
  PSYS1272713          JUNCTION     0.02     0.05  1888.00     0  00:55        0.05
  PSYS1271433          JUNCTION     0.02     0.05  1888.13     0  00:55        0.05
  PSYS1271455          JUNCTION     0.20     0.57  1889.08     0  00:55        0.57
  PSYS1271436          JUNCTION     0.02     0.05  1888.15     0  00:55        0.05
  PSYS1271452          JUNCTION     1.21     1.60  1888.51     0  00:50        1.60
  PSYS1271823          JUNCTION     0.05     0.18  1888.17     0  00:55        0.18
  PSYS1271821          JUNCTION     0.02     0.04  1888.18     0  00:55        0.04
  PSYS1271456          JUNCTION     1.72     2.82  1888.40     0  00:42        2.66
  PSYS1271813          JUNCTION     0.02     0.04  1888.31     0  00:55        0.04
  PSYS1271412          OUTFALL      0.32     0.60  1886.50     0  00:54        0.49
  
  
  *******************
  Node Inflow Summary
  *******************
  
  -------------------------------------------------------------------------------------------------
                                  Maximum  Maximum                  Lateral       Total        Flow
                                  Lateral    Total  Time of Max      Inflow      Inflow     Balance
                                   Inflow   Inflow   Occurrence      Volume      Volume       Error
  Node                 Type           CMS      CMS  days hr:min    10^6 ltr    10^6 ltr     Percent
  -------------------------------------------------------------------------------------------------
  PSYS1289520          JUNCTION     0.018    0.018     0  00:55      0.0298      0.0298       0.067
  PSYS1271413          JUNCTION     0.000    0.515     0  00:55           0        2.26       0.981
  PSYS1272029          JUNCTION     0.000    0.569     0  00:47           0        2.63       0.936
  PSYS1289511          JUNCTION     0.017    0.017     0  00:55      0.0277      0.0277       0.069
  PSYS1271418          JUNCTION     0.045    0.045     0  00:55      0.0726      0.0726       0.028
  PSYS1271420          JUNCTION     0.022    0.411     0  00:55      0.0353         1.9       0.570
  PSYS1271427          JUNCTION     0.006    0.035     0  00:55     0.00893      0.0573       0.079
  PSYS1271832          JUNCTION     0.030    0.553     0  00:54      0.0491        1.49       0.869
  PSYS1271831          JUNCTION     0.021    0.021     0  00:55      0.0341      0.0341       0.120
  PSYS1271827          JUNCTION     0.005    0.036     0  00:55     0.00752      0.0582       0.037
  PSYS1271451          JUNCTION     0.004    0.097     0  01:22     0.00466       0.348       0.367
  PSYS1271458          JUNCTION     0.037    0.037     0  00:55        0.06        0.06       0.078
  PSYS1271817          JUNCTION     0.003    0.265     0  00:55     0.00557       0.424       1.474
  PSYS1271812          JUNCTION     0.044    0.166     0  00:55      0.0717       0.274       5.236
  PSYS1271814          JUNCTION     0.027    0.027     0  00:55      0.0438      0.0438       0.138
  PSYS1289519          JUNCTION     0.134    0.160     0  00:41       0.225       0.608       2.688
  PSYS1272026          JUNCTION     0.019    0.019     0  00:55      0.0306      0.0306       0.127
  PSYS1272399          JUNCTION     0.071    0.214     0  00:45       0.115       0.912       0.523
  PSYS1272715          JUNCTION     0.017    0.017     0  00:55      0.0275      0.0275       0.184
  PSYS1271423          JUNCTION     0.031    0.031     0  00:55      0.0506      0.0506       0.080
  PSYS1272711          JUNCTION     0.024    0.576     0  00:55      0.0389        2.62       0.716
  PSYS1271830          JUNCTION     0.004    0.025     0  00:55     0.00613      0.0402       0.046
  PSYS1271434          JUNCTION     0.026    0.026     0  00:55      0.0414      0.0414       0.098
  PSYS1271825          JUNCTION     0.029    0.029     0  00:55      0.0475      0.0475       0.038
  PSYS1271824          JUNCTION     0.003    0.318     0  00:55      0.0054       0.837       1.930
  PSYS1271439          JUNCTION     0.005    0.031     0  00:55      0.0083      0.0501       0.038
  PSYS1271457          JUNCTION     0.005    0.042     0  00:55     0.00807      0.0681       0.033
  PSYS1271815          JUNCTION     0.071    0.237     0  00:55       0.116       0.382       1.334
  PSYS1272406          JUNCTION     0.000    0.177     0  00:55           0       0.292       0.136
  PSYS1289764          JUNCTION     0.019    0.306     0  00:55      0.0301       0.821       1.166
  PSYS1289523          JUNCTION     0.300    0.300     0  00:55       0.528       0.528       0.154
  PSYS1271414          JUNCTION     0.145    0.145     0  00:55       0.243       0.243       0.016
  PSYS1289771          JUNCTION     0.075    0.337     0  00:55       0.176        1.26       1.280
  PSYS1271416          JUNCTION     0.112    0.112     0  00:55       0.184       0.184       0.019
  PSYS1272410          JUNCTION     0.000    0.165     0  00:55           0       0.291       0.536
  PSYS1271425          JUNCTION     0.048    0.369     0  00:55       0.084        1.23       1.682
  PSYS1271424          JUNCTION     0.006    0.038     0  00:55      0.0105      0.0611       0.090
  PSYS1271829          JUNCTION     0.166    0.505     0  00:54       0.274        1.42       0.864
  PSYS1271430          JUNCTION     0.006    0.035     0  00:55     0.00997      0.0568       0.119
  PSYS1271453          JUNCTION     0.039    0.039     0  00:55      0.0873      0.0873       0.071
  PSYS1289526          JUNCTION     0.063    0.091     0  00:55       0.102       0.141       0.000
  PSYS1289760          JUNCTION     0.125    0.125     0  00:55       0.339       0.339       0.000
  PSYS1289765          JUNCTION     0.134    0.134     0  00:55       0.368       0.374       0.196
  PSYS1289522          JUNCTION     0.017    0.017     0  00:55      0.0279      0.0279       0.069
  PSYS1289516          JUNCTION     0.024    0.024     0  00:55      0.0396      0.0396       0.056
  PSYS1272027          JUNCTION     0.025    0.578     0  00:46      0.0406        2.66       1.438
  PSYS1272402          JUNCTION     0.366    0.874     0  00:55       0.612        2.11       0.292
  PSYS1271429          JUNCTION     0.059    0.428     0  00:55       0.166        1.03       1.736
  PSYS1271828          JUNCTION     0.031    0.031     0  00:55      0.0507      0.0507       0.083
  PSYS1271438          JUNCTION     0.026    0.026     0  00:55      0.0418      0.0418       0.100
  PSYS1289512          JUNCTION     0.044    0.347     0  00:55      0.0714        1.25       0.555
  PSYS1289510          JUNCTION     0.025    0.389     0  00:55      0.0404        1.31       0.523
  PSYS1272411          JUNCTION     0.000    0.004     0  00:43           0    0.000102       0.202
  PSYS1271417          JUNCTION     0.013    0.398     0  02:00      0.0212        1.83       1.249
  PSYS1272392          JUNCTION     0.007    0.189     0  01:17       0.012       0.795       0.527
  PSYS1272395          JUNCTION     0.485    0.485     0  00:55       0.892       0.892       0.045
  PSYS1272400          JUNCTION     0.164    0.328     0  00:55       0.291         1.2       0.545
  PSYS1271426          JUNCTION     0.030    0.030     0  00:55      0.0484      0.0484       0.090
  PSYS1271834          JUNCTION     0.017    0.017     0  00:55      0.0276      0.0276      -1.850
  PSYS1271833          JUNCTION     0.001    0.022     0  00:55     0.00165      0.0298       2.120
  PSYS1271431          JUNCTION     0.029    0.029     0  00:55      0.0466      0.0466       0.077
  PSYS1271432          JUNCTION     0.059    0.334     0  00:55        0.15       0.813       2.097
  PSYS1271826          JUNCTION     0.222    0.576     0  00:55       0.363        1.24       1.495
  PSYS1271437          JUNCTION     0.029    0.029     0  00:55      0.0464      0.0464       0.095
  PSYS1271450          JUNCTION     0.007    0.173     0  00:55      0.0109       0.515       4.195
  PSYS1271822          JUNCTION     0.090    0.413     0  00:55       0.155        0.67       0.980
  PSYS1271820          JUNCTION     0.002    0.324     0  00:55     0.00261       0.519       1.506
  PSYS1271818          JUNCTION     0.024    0.024     0  00:55      0.0382      0.0382       0.044
  PSYS1271410          JUNCTION     0.025    1.092     0  00:54      0.0402        4.89       0.451
  PSYS1272407          JUNCTION     0.022    0.022     0  00:55      0.0354      0.0354       0.056
  PSYS1289525          JUNCTION     0.019    0.019     0  00:55      0.0301      0.0301       0.057
  PSYS1271411          JUNCTION     0.024    0.024     0  00:55       0.041       0.041       0.039
  PSYS1289513          JUNCTION     0.022    0.022     0  00:55       0.036      0.0361       0.054
  PSYS1272393          JUNCTION     0.000    0.002     0  00:43           0    0.000187       0.196
  PSYS1272712          JUNCTION     0.015    0.551     0  00:43      0.0244        2.56       0.483
  PSYS1271811          JUNCTION     0.025    0.025     0  00:55      0.0402      0.0402       0.286
  PSYS1271810          JUNCTION     0.051    0.076     0  00:55      0.0833       0.123       0.017
  PSYS1289527          JUNCTION     0.022    0.022     0  00:55      0.0352       0.037       0.108
  PSYS1289524          JUNCTION     0.111    0.540     0  00:55       0.182        0.68       2.308
  PSYS1289766          JUNCTION     0.044    0.194     0  00:51        0.13       0.725       1.172
  PSYS1289515          JUNCTION     0.146    0.292     0  00:59       0.242        1.16       1.359
  PSYS1271415          JUNCTION     0.017    0.425     0  00:42      0.0281        2.03       1.225
  PSYS1272028          JUNCTION     0.015    0.015     0  00:55      0.0245      0.0245       0.124
  PSYS1272394          JUNCTION     0.000    0.241     0  00:55           0       0.665       0.155
  PSYS1272398          JUNCTION     0.025    0.194     0  01:17        0.04       0.801       0.503
  PSYS1272714          JUNCTION     0.000    0.562     0  00:43           0        2.57       0.686
  PSYS1272401          JUNCTION     0.175    0.502     0  00:55       0.306         1.5       0.293
  PSYS1271428          JUNCTION     0.062    0.383     0  00:55        0.14        1.17       1.791
  PSYS1271435          JUNCTION     0.037    0.244     0  00:55       0.059       0.619       3.208
  PSYS1271454          JUNCTION     0.016    0.149     0  00:55      0.0311       0.357       0.050
  PSYS1271819          JUNCTION     0.039    0.039     0  00:55      0.0637      0.0637       0.029
  PSYS1271809          JUNCTION     0.000    0.076     0  00:55           0       0.127       5.730
  PSYS1272405          JUNCTION     0.155    0.155     0  00:55       0.258       0.258       0.329
  PSYS1272030          JUNCTION     0.000    0.000     0  00:00           0           0       0.000 ltr
  PSYS1272409          JUNCTION     0.000    0.000     0  00:00           0           0       0.000 ltr
  PSYS1272408          JUNCTION     0.000    0.165     0  00:55           0       0.291       0.119
  PSYS1289762          JUNCTION     0.029    0.153     0  00:55      0.0775       0.418       1.755
  PSYS1289521          JUNCTION     0.008    0.326     0  00:55      0.0135         0.7       2.055
  PSYS1289768          JUNCTION     0.054    0.231     0  01:26       0.173       0.897       1.007
  PSYS1289517          JUNCTION     0.219    0.418     0  00:55       0.379       0.992       2.294
  PSYS1289518          JUNCTION     0.029    0.029     0  00:55      0.0473      0.0473       0.097
  PSYS1289770          JUNCTION     0.054    0.273     0  01:26       0.184        1.08       1.244
  PSYS1272025          JUNCTION     0.025    0.573     0  00:46      0.0405        2.63       1.098
  PSYS1271419          JUNCTION     0.016    0.393     0  02:00      0.0259        1.73       0.344
  PSYS1271421          JUNCTION     0.044    0.917     0  00:55       0.071        2.61       1.430
  PSYS1271422          JUNCTION     0.027    0.027     0  00:55      0.0441      0.0441       0.041
  PSYS1272713          JUNCTION     0.014    0.014     0  00:55      0.0224      0.0224       0.135
  PSYS1271433          JUNCTION     0.005    0.031     0  00:55     0.00853      0.0499       0.038
  PSYS1271455          JUNCTION     0.133    0.133     0  00:55       0.326       0.326       0.073
  PSYS1271436          JUNCTION     0.006    0.035     0  00:55     0.00958      0.0559       0.035
  PSYS1271452          JUNCTION     0.008    0.197     0  00:55      0.0146       0.459       0.381
  PSYS1271823          JUNCTION     0.131    0.131     0  00:55       0.214       0.214       0.015
  PSYS1271821          JUNCTION     0.019    0.019     0  00:55      0.0299      0.0299       0.050
  PSYS1271456          JUNCTION     0.020    0.062     0  00:55      0.0331       0.104       4.285
  PSYS1271813          JUNCTION     0.019    0.046     0  00:55        0.03      0.0737       0.023
  PSYS1271412          OUTFALL      0.809    1.896     0  00:55        1.46        6.29       0.000
  
  
  **********************
  Node Surcharge Summary
  **********************
  
  Surcharging occurs when water rises above the top of the highest conduit.
  ---------------------------------------------------------------------
                                               Max. Height   Min. Depth
                                   Hours       Above Crown    Below Rim
  Node                 Type      Surcharged         Meters       Meters
  ---------------------------------------------------------------------
  PSYS1271413          JUNCTION        0.30          0.268        0.632
  PSYS1271420          JUNCTION        1.64          2.150        0.000
  PSYS1271832          JUNCTION        0.88          0.479        0.241
  PSYS1271451          JUNCTION        0.65          0.256        0.194
  PSYS1271817          JUNCTION        0.68          0.749        0.091
  PSYS1271812          JUNCTION        0.48          0.607        0.033
  PSYS1289519          JUNCTION        1.31          0.668        0.172
  PSYS1272399          JUNCTION        1.51          1.695        0.205
  PSYS1272711          JUNCTION        1.58          1.646        0.504
  PSYS1271824          JUNCTION        0.89          0.836        0.004
  PSYS1271815          JUNCTION        1.53          1.900        0.000
  PSYS1272406          JUNCTION        0.74          0.690        0.000
  PSYS1289764          JUNCTION        1.43          1.470        0.000
  PSYS1289523          JUNCTION        1.71          2.048        0.152
  PSYS1289771          JUNCTION        1.39          1.214        0.076
  PSYS1272410          JUNCTION        0.60          0.352        0.088
  PSYS1271425          JUNCTION        1.49          1.360        0.000
  PSYS1271829          JUNCTION        0.90          0.621        0.119
  PSYS1289526          JUNCTION        1.34          0.814        0.136
  PSYS1289760          JUNCTION        1.45          1.594        0.096
  PSYS1289765          JUNCTION        1.45          1.580        0.210
  PSYS1272402          JUNCTION        1.75          1.970        0.000
  PSYS1271429          JUNCTION        1.38          1.220        0.000
  PSYS1289512          JUNCTION        1.32          0.840        0.000
  PSYS1289510          JUNCTION        1.30          0.710        0.000
  PSYS1271417          JUNCTION        1.31          0.644        0.266
  PSYS1272392          JUNCTION        0.95          0.710        0.000
  PSYS1272395          JUNCTION        1.15          0.970        0.000
  PSYS1272400          JUNCTION        1.53          1.770        0.230
  PSYS1271432          JUNCTION        1.34          1.044        0.046
  PSYS1271826          JUNCTION        1.13          0.950        0.000
  PSYS1271450          JUNCTION        1.29          0.690        0.000
  PSYS1271822          JUNCTION        1.55          1.930        0.000
  PSYS1271820          JUNCTION        0.81          0.796        0.074
  PSYS1272407          JUNCTION        0.10          0.381        0.119
  PSYS1272712          JUNCTION        0.78          0.313        0.677
  PSYS1289524          JUNCTION        1.34          0.800        0.000
  PSYS1289766          JUNCTION        1.44          1.484        0.166
  PSYS1289515          JUNCTION        1.30          0.720        0.000
  PSYS1271415          JUNCTION        1.30          0.543        0.347
  PSYS1272394          JUNCTION        1.38          1.150        0.000
  PSYS1272398          JUNCTION        1.50          1.544        0.276
  PSYS1272714          JUNCTION        0.80          0.339        0.731
  PSYS1272401          JUNCTION        1.53          1.560        0.000
  PSYS1271428          JUNCTION        1.41          1.240        0.000
  PSYS1271435          JUNCTION        1.34          1.160        0.000
  PSYS1271809          JUNCTION        0.39          0.506        0.134
  PSYS1272405          JUNCTION        0.83          1.060        0.000
  PSYS1272408          JUNCTION        0.75          0.609        0.041
  PSYS1289762          JUNCTION        1.40          1.414        0.256
  PSYS1289521          JUNCTION        1.34          1.057        0.003
  PSYS1289768          JUNCTION        1.44          1.478        0.122
  PSYS1289517          JUNCTION        1.30          0.550        0.000
  PSYS1289770          JUNCTION        1.40          1.372        0.178
  PSYS1272025          JUNCTION        0.02          0.010        0.830
  PSYS1271419          JUNCTION        1.65          2.175        0.255
  PSYS1271421          JUNCTION        1.38          0.910        0.000
  PSYS1271455          JUNCTION        0.45          0.274        0.046
  PSYS1271452          JUNCTION        1.04          0.400        0.000
  PSYS1271456          JUNCTION        1.31          1.090        0.000
  
  
  *********************
  Node Flooding Summary
  *********************
  
  Flooding refers to all water that overflows a node, whether it ponds or not.
  --------------------------------------------------------------------------
                                                             Total   Maximum
                                 Maximum   Time of Max       Flood    Ponded
                        Hours       Rate    Occurrence      Volume     Depth
  Node                 Flooded       CMS   days hr:min    10^6 ltr    Meters
  --------------------------------------------------------------------------
  PSYS1271420             0.01     0.021      0  00:41       0.000     0.000
  PSYS1271815             0.01     0.000      0  00:54       0.000     0.000
  PSYS1272406             0.03     0.012      0  00:55       0.001     0.000
  PSYS1289764             0.59     0.196      0  00:55       0.217     0.000
  PSYS1271425             0.59     0.101      0  00:55       0.112     0.000
  PSYS1272402             0.73     0.874      0  00:55       0.982     0.000
  PSYS1271429             0.26     0.142      0  00:55       0.055     0.000
  PSYS1289512             0.01     0.014      0  00:41       0.000     0.000
  PSYS1289510             0.01     0.054      0  00:41       0.000     0.000
  PSYS1272392             0.01     0.002      0  00:43       0.000     0.000
  PSYS1272395             0.54     0.348      0  00:55       0.256     0.000
  PSYS1271826             0.26     0.264      0  00:55       0.111     0.000
  PSYS1271450             0.01     0.039      0  00:42       0.000     0.000
  PSYS1271822             0.23     0.259      0  00:55       0.096     0.000
  PSYS1289524             0.77     0.540      0  00:55       0.564     0.000
  PSYS1289515             0.01     0.068      0  00:41       0.000     0.000
  PSYS1272394             0.49     0.241      0  00:55       0.171     0.000
  PSYS1272401             0.30     0.158      0  00:55       0.073     0.000
  PSYS1271428             0.42     0.099      0  00:55       0.083     0.000
  PSYS1271435             0.01     0.002      0  00:42       0.000     0.000
  PSYS1272405             0.01     0.000      0  00:55       0.000     0.000
  PSYS1289517             0.17     0.309      0  00:55       0.088     0.000
  PSYS1271421             1.30     0.917      0  00:55       1.945     0.000
  PSYS1271452             0.54     0.127      0  00:55       0.114     0.000
  PSYS1271456             0.01     0.004      0  00:42       0.000     0.000
  
  
  ***********************
  Outfall Loading Summary
  ***********************
  
  -----------------------------------------------------------
                         Flow       Avg       Max       Total
                         Freq      Flow      Flow      Volume
  Outfall Node           Pcnt       CMS       CMS    10^6 ltr
  -----------------------------------------------------------
  PSYS1271412           99.99     0.884     1.896       6.286
  -----------------------------------------------------------
  System                99.99     0.884     1.896       6.286
  
  
  ********************
  Link Flow Summary
  ********************
  
  -----------------------------------------------------------------------------
                                 Maximum  Time of Max   Maximum    Max/    Max/
                                  |Flow|   Occurrence   |Veloc|    Full    Full
  Link                 Type          CMS  days hr:min     m/sec    Flow   Depth
  -----------------------------------------------------------------------------
  12106964             CONDUIT     0.091     0  00:55      0.46    0.50    1.00
  12106960             CONDUIT     0.322     0  00:55      1.64    2.69    1.00
  12106962             CONDUIT     0.300     0  00:55      1.53    1.80    1.00
  12099099             CONDUIT     0.004     0  00:43      0.99    0.19    0.85
  12098525             CONDUIT     0.560     0  00:46      1.11    0.77    1.00
  12096546             CONDUIT     0.255     0  02:00      0.90    1.38    1.00
  12099126             CONDUIT     0.556     0  00:46      1.11    2.73    1.00
  12096550             CONDUIT     0.268     0  00:57      0.95    0.65    1.00
  12096555             CONDUIT     0.031     0  00:55      2.19    0.24    0.26
  12096556             CONDUIT     0.284     0  00:57      1.00    0.63    1.00
  12098153             CONDUIT     0.019     0  00:55      3.03    0.02    0.55
  12098143             CONDUIT     0.031     0  00:55      1.90    0.31    0.28
  12096574             CONDUIT     0.245     0  00:55      0.86    1.70    1.00
  12096584             CONDUIT     0.031     0  00:55      2.42    0.06    0.58
  12098126             CONDUIT     0.019     0  00:55      2.23    0.03    0.56
  12106934             CONDUIT     0.019     0  00:55      1.73    0.05    0.57
  12098534             CONDUIT     0.000     0  00:00      0.00    0.00    0.24
  12098529             CONDUIT     0.569     0  00:47      1.13    0.95    1.00
  12096539             CONDUIT     0.045     0  00:55      3.08    0.07    0.59
  12099104             CONDUIT     0.002     0  00:43      0.37    0.12    0.89
  12099127             CONDUIT     0.017     0  00:55      1.03    0.09    0.60
  12096553             CONDUIT     0.038     0  00:55      2.37    0.07    0.62
  12099116             CONDUIT     0.325     0  00:43      1.65    0.92    1.00
  12098149             CONDUIT     0.021     0  00:55      1.41    0.29    0.26
  12098146             CONDUIT     0.506     0  00:54      1.79    1.18    1.00
  12096568             CONDUIT     0.334     0  00:55      1.18    0.83    1.00
  12096573             CONDUIT     0.026     0  00:55      1.80    0.26    0.25
  12096593             CONDUIT     0.149     0  00:55      2.22    0.60    0.90
  12096599             CONDUIT     0.042     0  00:55      2.70    0.08    0.60
  12099095             CONDUIT     0.000     0  00:00      0.00    0.00    0.50
  12107420             CONDUIT     0.125     0  00:55      0.44    0.20    1.00
  12107423             CONDUIT     0.153     0  00:55      0.54    0.41    1.00
  12107426             CONDUIT     0.134     0  00:55      0.68    0.19    1.00
  12107428             CONDUIT     0.168     0  00:51      0.59    1.33    1.00
  12106951             CONDUIT     0.215     0  00:41      1.10    0.85    1.00
  12096528             CONDUIT     0.515     0  00:55      1.82    2.35    1.00
  12098526             CONDUIT     0.019     0  00:55      1.24    0.09    0.60
  12099112             CONDUIT     0.327     0  00:55      1.67    2.14    1.00
  12096559             CONDUIT     0.035     0  00:55      2.30    0.07    0.64
  12096562             CONDUIT     0.286     0  00:59      1.01    0.57    1.00
  12098147             CONDUIT     0.025     0  00:55      2.11    0.05    0.58
  12096595             CONDUIT     0.133     0  00:55      1.98   31.51    0.90
  12098136             CONDUIT     0.131     0  00:55      4.66    0.16    0.80
  12096586             CONDUIT     0.026     0  00:55      1.71    0.29    0.27
  12106931             CONDUIT     0.044     0  00:53      1.79    0.14    0.80
  12107433             CONDUIT     0.231     0  01:26      0.82    0.68    1.00
  12107435             CONDUIT     0.273     0  01:26      0.97    1.14    1.00
  12106946             CONDUIT     0.292     0  00:59      1.49   20.42    1.00
  12106929             CONDUIT     0.022     0  00:55      1.75    0.06    0.58
  12096532             CONDUIT     0.442     0  00:42      1.56    2.90    1.00
  12096536             CONDUIT     0.398     0  02:00      1.41   26.01    1.00
  12099110             CONDUIT     0.214     0  00:45      1.09    0.91    1.00
  12098152             CONDUIT     0.553     0  00:54      1.10    0.54    1.00
  12096571             CONDUIT     0.031     0  00:55      2.44    0.06    0.58
  12096580             CONDUIT     0.173     0  00:55      0.61    0.97    1.00
  12098110             CONDUIT     0.166     0  00:55      0.59    0.94    1.00
  12098107             CONDUIT     0.025     0  00:55      0.97    0.51    0.39
  12106930             CONDUIT     0.026     0  00:55      1.68    0.08    0.76
  12096549             CONDUIT     0.027     0  00:55      2.14    0.05    0.58
  12099122             CONDUIT     0.557     0  00:43      1.33    0.71    1.00
  12099119             CONDUIT     0.542     0  00:43      1.08    0.55    1.00
  12096561             CONDUIT     0.030     0  00:55      1.80    0.33    0.28
  12099114             CONDUIT     0.344     0  00:51      1.75    0.64    1.00
  12096592             CONDUIT     0.039     0  00:55      0.75    0.21    0.73
  12098127             CONDUIT     0.039     0  00:55      3.40    0.05    0.57
  12098120             CONDUIT     0.265     0  00:55      0.94    0.83    1.00
  12098113             CONDUIT     0.027     0  00:55      1.57    0.79    0.29
  12096522             CONDUIT     1.090     0  00:55      4.04    1.00    1.00
  12099087             CONDUIT     0.155     0  00:55      1.24    1.33    1.00
  12099090             CONDUIT     0.165     0  00:55      1.32    0.71    1.00
  12106933             CONDUIT     0.024     0  00:42      1.72    0.06    0.91
  12106957             CONDUIT     0.124     0  00:41      0.63    0.62    1.00
  12106932             CONDUIT     0.020     0  00:55      1.58    0.06    0.82
  12107430             CONDUIT     0.194     0  00:51      0.69    1.63    1.00
  12099094             CONDUIT     0.165     0  00:55      1.32    0.97    1.00
  12099105             CONDUIT     0.147     0  01:17      1.82    0.27    1.00
  12099123             CONDUIT     0.014     0  00:55      1.09    0.07    0.59
  12096567             CONDUIT     0.029     0  00:55      2.27    0.18    0.36
  12098140             CONDUIT     0.394     0  01:02      1.39    2.68    1.00
  12098132             CONDUIT     0.318     0  00:55      1.13    3.67    1.00
  12096589             CONDUIT     0.096     0  01:22      5.43    5.96    1.00
  12098129             CONDUIT     0.207     0  01:01      0.73    0.60    1.00
  12096601             CONDUIT     0.037     0  00:55      2.08    0.35    0.30
  12098116             CONDUIT     0.238     0  00:55      0.84    0.40    1.00
  12098104             CONDUIT     0.076     0  00:55      0.48    0.26    1.00
  12106953             CONDUIT     0.170     0  00:41      0.86    1.18    1.00
  12096527             CONDUIT     0.024     0  00:55      3.90    0.02    0.40
  12096531             CONDUIT     0.145     0  00:55      4.63    0.23    0.66
  12098533             CONDUIT     0.564     0  00:48      1.99    1.82    1.00
  12096535             CONDUIT     0.112     0  00:55      3.99    0.19    0.66
  12106944             CONDUIT     0.347     0  00:55      1.77    0.68    1.00
  12099102             CONDUIT     0.189     0  01:17      0.96    1.07    1.00
  12096542             CONDUIT     0.391     0  02:00      1.99    0.92    1.00
  12096540             CONDUIT     0.393     0  02:00      1.39   23.10    1.00
  12099507             CONDUIT     0.147     0  01:17      2.23    0.41    1.00
  12096565             CONDUIT     0.047     0  00:50      2.41    0.09    0.76
  12096579             CONDUIT     0.029     0  00:55      1.78    0.32    0.28
  12096587             CONDUIT     0.097     0  01:22      1.37    0.64    1.00
  12098124             CONDUIT     0.324     0  00:55      1.14    1.31    1.00
  12098121             CONDUIT     0.024     0  00:55      2.51    0.04    0.57
  12098105             CONDUIT     0.076     0  00:55      4.95    0.03    0.56
  12099091             CONDUIT     0.022     0  00:55      2.87    0.75    1.00
  12106935             CONDUIT     0.029     0  00:55      1.77    0.08    0.72
  12106928             CONDUIT     0.017     0  00:55      1.47    0.06    0.58
  12098530             CONDUIT     0.015     0  00:55      1.21    0.07    0.55
  12099098             CONDUIT     0.165     0  00:55      1.32    0.77    1.00
  12099108             CONDUIT     0.194     0  01:17      1.16    0.65    1.00
  12098155             CONDUIT     0.021     0  00:55      1.59    1.62    0.24
  12098141             CONDUIT     0.036     0  00:55      2.33    0.07    0.59
  12096577             CONDUIT     0.035     0  00:55      2.53    0.06    0.59
  12098135             CONDUIT     0.029     0  00:55      2.52    0.05    0.58
  12096596             CONDUIT     0.063     0  00:55      0.45    0.11    1.00
  12098111             CONDUIT     0.046     0  00:55      4.28    0.02    0.55
  12000001             CONDUIT     0.337     0  00:55      1.19    0.56    1.00
  12000002             CONDUIT     0.389     0  00:55      1.38    0.25    1.00
  
  
  ***************************
  Flow Classification Summary
  ***************************
  
  -------------------------------------------------------------------------------------
                      Adjusted    ---------- Fraction of Time in Flow Class ---------- 
                       /Actual         Up    Down  Sub   Sup   Up    Down  Norm  Inlet 
  Conduit               Length    Dry  Dry   Dry   Crit  Crit  Crit  Crit  Ltd   Ctrl  
  -------------------------------------------------------------------------------------
  12106964                1.00   0.00  0.00  0.00  1.00  0.00  0.00  0.00  0.04  0.00
  12106960                1.00   0.00  0.02  0.00  0.97  0.00  0.00  0.00  0.00  0.00
  12106962                1.00   0.02  0.00  0.00  0.91  0.00  0.07  0.00  0.00  0.00
  12099099                1.00   0.36  0.00  0.00  0.33  0.00  0.00  0.30  0.57  0.00
  12098525                1.00   0.00  0.00  0.00  0.94  0.00  0.00  0.06  0.05  0.00
  12096546                1.00   0.00  0.08  0.00  0.86  0.00  0.06  0.00  0.00  0.00
  12099126                1.00   0.00  0.01  0.00  0.99  0.00  0.00  0.00  0.02  0.00
  12096550                1.00   0.00  0.00  0.00  0.93  0.00  0.00  0.07  0.04  0.00
  12096555                1.00   0.00  0.00  0.00  0.01  0.99  0.00  0.00  0.11  0.00
  12096556                1.00   0.03  0.03  0.00  0.93  0.00  0.00  0.00  0.03  0.00
  12098153                1.00   0.01  0.00  0.00  0.57  0.04  0.00  0.39  0.60  0.00
  12098143                1.00   0.00  0.00  0.00  0.01  0.99  0.00  0.00  0.95  0.00
  12096574                1.00   0.00  0.00  0.00  0.92  0.00  0.00  0.08  0.00  0.00
  12096584                1.00   0.00  0.00  0.00  0.67  0.01  0.00  0.32  0.68  0.00
  12098126                1.00   0.00  0.00  0.00  0.56  0.03  0.00  0.41  0.58  0.00
  12106934                1.00   0.00  0.00  0.00  0.69  0.01  0.00  0.31  0.69  0.00
  12098534                1.00   0.85  0.15  0.00  0.00  0.00  0.00  0.00  0.00  0.00
  12098529                1.00   0.06  0.04  0.00  0.88  0.00  0.02  0.00  0.00  0.00
  12096539                1.00   0.00  0.00  0.00  0.67  0.01  0.00  0.32  0.68  0.00
  12099104                1.00   0.34  0.02  0.00  0.49  0.00  0.00  0.15  0.35  0.00
  12099127                1.00   0.00  0.00  0.00  0.53  0.01  0.00  0.45  0.55  0.00
  12096553                1.00   0.00  0.00  0.00  0.78  0.01  0.00  0.21  0.60  0.00
  12099116                1.00   0.02  0.04  0.00  0.91  0.00  0.03  0.00  0.00  0.00
  12098149                1.00   0.00  0.00  0.00  0.01  0.99  0.00  0.00  0.91  0.00
  12098146                1.00   0.00  0.00  0.00  0.95  0.00  0.00  0.05  0.01  0.00
  12096568                1.00   0.03  0.05  0.00  0.92  0.00  0.00  0.00  0.09  0.00
  12096573                1.00   0.00  0.00  0.00  0.01  0.99  0.00  0.00  0.16  0.00
  12096593                1.00   0.00  0.00  0.00  0.71  0.19  0.00  0.09  0.60  0.00
  12096599                1.00   0.00  0.00  0.00  0.67  0.01  0.00  0.33  0.67  0.00
  12099095                1.00   0.60  0.40  0.00  0.00  0.00  0.00  0.00  0.00  0.00
  12107420                1.00   0.00  0.00  0.00  0.95  0.00  0.00  0.05  0.03  0.00
  12107423                1.00   0.00  0.00  0.00  0.94  0.00  0.00  0.05  0.07  0.00
  12107426                1.00   0.00  0.00  0.00  0.95  0.00  0.00  0.04  0.02  0.00
  12107428                1.00   0.00  0.03  0.00  0.94  0.00  0.03  0.00  0.00  0.00
  12106951                1.00   0.00  0.00  0.00  1.00  0.00  0.00  0.00  0.12  0.00
  12096528                1.00   0.00  0.07  0.00  0.90  0.00  0.02  0.00  0.00  0.00
  12098526                1.00   0.00  0.00  0.00  0.30  0.06  0.00  0.64  0.36  0.00
  12099112                1.00   0.04  0.01  0.00  0.82  0.00  0.00  0.13  0.02  0.00
  12096559                1.00   0.00  0.00  0.00  0.74  0.01  0.00  0.24  0.59  0.00
  12096562                1.00   0.04  0.00  0.00  0.89  0.00  0.00  0.06  0.06  0.00
  12098147                1.00   0.00  0.00  0.00  0.58  0.04  0.00  0.38  0.61  0.00
  12096595                1.00   0.00  0.00  0.00  0.28  0.71  0.00  0.00  0.00  0.00
  12098136                1.00   0.00  0.00  0.00  0.41  0.18  0.00  0.41  0.41  0.00
  12096586                1.00   0.00  0.00  0.00  0.01  0.99  0.00  0.00  0.27  0.00
  12106931                1.00   0.00  0.00  0.00  0.66  0.00  0.00  0.34  0.56  0.00
  12107433                1.00   0.00  0.10  0.00  0.89  0.00  0.01  0.00  0.00  0.00
  12107435                1.00   0.09  0.00  0.00  0.84  0.00  0.05  0.01  0.04  0.00
  12106946                1.00   0.00  0.00  0.00  1.00  0.00  0.00  0.00  0.00  0.00
  12106929                1.00   0.00  0.00  0.00  0.67  0.00  0.00  0.32  0.68  0.00
  12096532                1.00   0.02  0.00  0.00  0.93  0.00  0.00  0.05  0.01  0.00
  12096536                1.00   0.00  0.00  0.00  0.93  0.00  0.00  0.07  0.00  0.00
  12099110                1.00   0.05  0.02  0.00  0.93  0.00  0.00  0.00  0.09  0.00
  12098152                1.00   0.02  0.00  0.00  0.91  0.00  0.00  0.07  0.02  0.00
  12096571                1.00   0.00  0.00  0.00  0.68  0.01  0.00  0.31  0.69  0.00
  12096580                1.00   0.00  0.06  0.00  0.93  0.00  0.00  0.00  0.05  0.00
  12098110                1.00   0.07  0.00  0.00  0.79  0.00  0.14  0.00  0.00  0.00
  12098107                1.00   0.00  0.00  0.00  0.96  0.03  0.00  0.00  0.04  0.00
  12106930                1.00   0.00  0.00  0.00  0.66  0.00  0.00  0.34  0.56  0.00
  12096549                1.00   0.00  0.00  0.00  0.71  0.01  0.00  0.27  0.72  0.00
  12099122                1.00   0.00  0.00  0.00  0.85  0.00  0.00  0.15  0.00  0.00
  12099119                1.00   0.06  0.00  0.00  0.89  0.00  0.02  0.03  0.00  0.00
  12096561                1.00   0.00  0.00  0.00  0.04  0.96  0.00  0.00  0.85  0.00
  12099114                1.00   0.04  0.00  0.00  0.95  0.00  0.00  0.00  0.15  0.00
  12096592                1.00   0.00  0.00  0.00  0.91  0.00  0.00  0.09  0.62  0.00
  12098127                1.00   0.00  0.00  0.00  0.50  0.04  0.00  0.46  0.53  0.00
  12098120                1.00   0.00  0.05  0.00  0.94  0.00  0.00  0.00  0.10  0.00
  12098113                1.00   0.00  0.00  0.00  0.05  0.95  0.00  0.00  0.00  0.00
  12096522                1.00   0.12  0.07  0.00  0.06  0.74  0.00  0.00  0.00  0.00
  12099087                1.00   0.04  0.00  0.00  0.54  0.00  0.00  0.42  0.02  0.00
  12099090                1.00   0.07  0.00  0.00  0.66  0.21  0.00  0.06  0.30  0.00
  12106933                1.00   0.00  0.00  0.00  0.69  0.00  0.00  0.31  0.44  0.00
  12106957                1.00   0.04  0.00  0.00  0.91  0.00  0.00  0.05  0.01  0.00
  12106932                1.00   0.00  0.00  0.00  0.66  0.00  0.00  0.33  0.53  0.00
  12107430                1.00   0.00  0.00  0.00  1.00  0.00  0.00  0.00  0.04  0.00
  12099094                1.00   0.07  0.00  0.00  0.71  0.10  0.00  0.12  0.03  0.00
  12099105                1.00   0.03  0.00  0.00  0.75  0.00  0.00  0.21  0.00  0.00
  12099123                1.00   0.00  0.00  0.00  0.52  0.01  0.00  0.47  0.53  0.00
  12096567                1.00   0.00  0.00  0.00  0.03  0.97  0.00  0.00  0.14  0.00
  12098140                1.00   0.00  0.00  0.00  0.94  0.00  0.00  0.06  0.00  0.00
  12098132                1.00   0.01  0.00  0.00  0.95  0.00  0.00  0.04  0.00  0.00
  12096589                1.00   0.09  0.00  0.00  0.35  0.00  0.55  0.00  0.00  0.00
  12098129                1.00   0.05  0.03  0.00  0.92  0.00  0.00  0.00  0.05  0.00
  12096601                1.00   0.00  0.00  0.00  0.01  0.99  0.00  0.00  0.16  0.00
  12098116                1.00   0.05  0.01  0.00  0.91  0.00  0.02  0.00  0.01  0.00
  12098104                1.00   0.02  0.00  0.00  0.93  0.00  0.00  0.05  0.14  0.00
  12106953                1.00   0.00  0.04  0.00  0.89  0.00  0.06  0.00  0.00  0.00
  12096527                1.00   0.00  0.00  0.00  0.01  0.17  0.00  0.82  0.15  0.00
  12096531                1.00   0.00  0.00  0.00  0.00  0.56  0.00  0.44  0.55  0.00
  12098533                1.00   0.11  0.00  0.00  0.87  0.00  0.01  0.01  0.00  0.00
  12096535                1.00   0.00  0.00  0.00  0.54  0.13  0.00  0.33  0.64  0.00
  12106944                1.00   0.00  0.06  0.00  0.94  0.00  0.00  0.00  0.08  0.00
  12099102                1.00   0.05  0.00  0.00  0.93  0.00  0.02  0.00  0.00  0.00
  12096542                1.00   0.00  0.04  0.00  0.96  0.00  0.00  0.00  0.04  0.00
  12096540                1.00   0.08  0.00  0.00  0.86  0.00  0.06  0.00  0.00  0.00
  12099507                1.00   0.02  0.00  0.00  0.72  0.02  0.00  0.24  0.01  0.00
  12096565                1.00   0.00  0.00  0.00  0.71  0.01  0.00  0.27  0.46  0.00
  12096579                1.00   0.00  0.00  0.00  0.01  0.99  0.00  0.00  0.30  0.00
  12096587                1.00   0.13  0.00  0.00  0.65  0.00  0.00  0.21  0.15  0.00
  12098124                1.00   0.02  0.02  0.00  0.92  0.00  0.05  0.00  0.00  0.00
  12098121                1.00   0.00  0.00  0.00  0.45  0.03  0.00  0.52  0.48  0.00
  12098105                1.00   0.00  0.00  0.00  0.32  0.08  0.00  0.60  0.39  0.00
  12099091                1.00   0.00  0.00  0.00  0.06  0.33  0.00  0.61  0.23  0.00
  12106935                1.00   0.00  0.00  0.00  0.68  0.00  0.00  0.31  0.29  0.00
  12106928                1.00   0.00  0.00  0.00  0.66  0.00  0.00  0.34  0.66  0.00
  12098530                1.00   0.00  0.00  0.00  0.24  0.05  0.00  0.70  0.29  0.00
  12099098                1.00   0.08  0.00  0.00  0.75  0.00  0.00  0.16  0.03  0.00
  12099108                1.00   0.07  0.00  0.00  0.82  0.10  0.00  0.01  0.01  0.00
  12098155                1.00   0.00  0.00  0.00  0.35  0.65  0.00  0.00  0.08  0.00
  12098141                1.00   0.00  0.00  0.00  0.69  0.01  0.00  0.29  0.70  0.00
  12096577                1.00   0.00  0.00  0.00  0.69  0.01  0.00  0.30  0.69  0.00
  12098135                1.00   0.00  0.00  0.00  0.58  0.04  0.00  0.38  0.62  0.00
  12096596                1.00   0.00  0.00  0.00  0.93  0.00  0.00  0.06  0.12  0.00
  12098111                1.00   0.00  0.00  0.00  0.41  0.03  0.00  0.55  0.43  0.00
  12000001                1.00   0.09  0.00  0.00  0.83  0.00  0.00  0.07  0.05  0.00
  12000002                1.00   0.11  0.04  0.00  0.85  0.00  0.00  0.00  0.12  0.00
  
  
  *************************
  Conduit Surcharge Summary
  *************************
  
  ----------------------------------------------------------------------------
                                                           Hours        Hours 
                         --------- Hours Full --------   Above Full   Capacity
  Conduit                Both Ends  Upstream  Dnstream   Normal Flow   Limited
  ----------------------------------------------------------------------------
  12106964                    1.75      1.75      1.77      0.01         0.01
  12106960                    1.75      1.75      1.75      0.33         0.35
  12106962                    1.71      1.71      1.71      0.21         0.02
  12099099                    0.01      0.01      0.60      0.01         0.01
  12098525                    1.61      1.61      1.63      0.01         0.01
  12096546                    1.64      1.64      1.65      0.43         0.09
  12099126                    1.61      1.61      1.61      1.54         1.54
  12096550                    1.65      1.65      1.67      0.01         0.01
  12096556                    1.65      1.65      1.69      0.01         0.01
  12098153                    0.01      0.01      0.88      0.01         0.01
  12096574                    1.58      1.58      1.58      0.32         0.34
  12096584                    0.01      0.01      1.32      0.01         0.01
  12098126                    0.01      0.01      0.87      0.01         0.01
  12106934                    0.01      0.01      1.34      0.01         0.01
  12098529                    1.61      1.61      1.63      0.01         0.01
  12096539                    0.01      0.01      1.31      0.01         0.01
  12099104                    0.01      0.01      0.92      0.01         0.01
  12099127                    0.01      0.01      0.80      0.01         0.01
  12096553                    0.01      0.01      1.49      0.01         0.01
  12099116                    1.62      1.62      1.79      0.01         0.01
  12098146                    1.58      1.58      1.60      0.29         0.01
  12096568                    1.58      1.58      1.61      0.01         0.01
  12096593                    0.01      0.01      1.04      0.01         0.01
  12096599                    0.01      0.01      1.31      0.01         0.01
  12107420                    1.40      1.40      1.45      0.01         0.01
  12107423                    1.40      1.40      1.44      0.01         0.01
  12107426                    1.45      1.45      1.50      0.01         0.01
  12107428                    1.43      1.43      1.44      0.57         0.62
  12106951                    1.67      1.67      1.71      0.01         0.01
  12096528                    1.65      1.65      1.65      1.39         0.01
  12098526                    0.01      0.01      0.02      0.01         0.01
  12099112                    1.53      1.53      1.54      1.06         1.06
  12096559                    0.01      0.01      1.41      0.01         0.01
  12096562                    1.60      1.60      1.65      0.01         0.01
  12098147                    0.01      0.01      0.90      0.01         0.01
  12096595                    0.01      0.45      0.01      1.62         0.01
  12098136                    0.01      0.01      0.89      0.01         0.01
  12106931                    0.01      0.01      1.30      0.01         0.01
  12107433                    1.40      1.40      1.44      0.01         0.01
  12107435                    1.39      1.39      1.40      0.70         0.01
  12106946                    1.66      1.66      1.67      1.69         0.01
  12106929                    0.01      0.01      1.32      0.01         0.01
  12096532                    1.65      1.65      1.66      1.43         0.01
  12096536                    1.66      1.66      1.66      1.68         1.62
  12099110                    1.51      1.51      1.53      0.01         0.01
  12098152                    1.54      1.54      1.58      0.01         0.01
  12096571                    0.01      0.01      1.34      0.01         0.01
  12096580                    1.58      1.58      1.58      0.01         0.01
  12098110                    1.53      1.53      1.53      0.01         0.01
  12106930                    0.01      0.01      1.30      0.01         0.01
  12096549                    0.01      0.01      1.38      0.01         0.01
  12099122                    1.56      1.56      1.58      0.01         0.01
  12099119                    1.56      1.56      1.58      0.01         0.01
  12099114                    1.53      1.53      1.75      0.01         0.01
  12096592                    0.01      0.01      1.21      0.01         0.01
  12098127                    0.01      0.01      0.81      0.01         0.01
  12098120                    1.54      1.54      1.55      0.01         0.01
  12096522                    0.01      0.01      1.60      0.01         0.01
  12099087                    0.83      0.83      0.88      0.10         0.10
  12099090                    0.88      0.88      1.07      0.01         0.01
  12106933                    0.01      0.01      1.34      0.01         0.01
  12106957                    1.70      1.70      1.72      0.01         0.01
  12106932                    0.01      0.01      1.31      0.01         0.01
  12107430                    1.44      1.44      1.44      1.05         1.08
  12099094                    1.08      1.08      1.21      0.01         0.01
  12099105                    1.39      1.39      1.44      0.01         0.01
  12099123                    0.01      0.01      0.78      0.01         0.01
  12098140                    1.57      1.57      1.58      0.76         0.77
  12098132                    1.57      1.57      1.57      0.98         0.03
  12096589                    1.23      1.23      1.26      1.28         0.01
  12098129                    1.55      1.55      1.57      0.01         0.01
  12098116                    1.54      1.54      1.55      0.01         0.01
  12098104                    1.52      1.52      1.53      0.01         0.01
  12106953                    1.69      1.69      1.71      0.03         0.03
  12096531                    0.01      0.01      0.30      0.01         0.01
  12098533                    1.64      1.64      1.65      1.47         0.01
  12096535                    0.01      0.01      1.30      0.01         0.01
  12106944                    1.41      1.41      1.66      0.01         0.01
  12099102                    1.50      1.50      1.51      0.17         0.01
  12096542                    1.73      1.73      1.75      0.01         0.01
  12096540                    1.65      1.65      1.65      1.66         1.62
  12099507                    1.15      1.15      1.38      0.01         0.01
  12096565                    0.01      0.01      1.38      0.01         0.01
  12096587                    0.65      0.65      1.29      0.01         0.01
  12098124                    1.55      1.55      1.55      0.10         0.01
  12098121                    0.01      0.01      0.68      0.01         0.01
  12098105                    0.01      0.01      0.39      0.01         0.01
  12099091                    0.10      0.10      0.74      0.01         0.01
  12106935                    0.01      0.01      1.34      0.01         0.01
  12106928                    0.01      0.01      1.30      0.01         0.01
  12099098                    1.20      1.20      1.40      0.01         0.01
  12099108                    1.50      1.50      1.51      0.01         0.01
  12098155                    0.01      0.01      0.01      0.11         0.01
  12098141                    0.01      0.01      1.13      0.01         0.01
  12096577                    0.01      0.01      1.34      0.01         0.01
  12098135                    0.01      0.01      0.92      0.01         0.01
  12096596                    1.56      1.56      1.58      0.01         0.01
  12098111                    0.01      0.01      0.48      0.01         0.01
  12000001                    1.39      1.39      1.58      0.01         0.01
  12000002                    1.36      1.36      1.69      0.01         0.01
  

  Analysis begun on:  Fri Apr 25 20:37:53 2025
  Analysis ended on:  Fri Apr 25 20:37:55 2025
  Total elapsed time: 00:00:02